$DATA1 SOURCE='HSPICE' VERSION='A-2007.09'
.TITLE '.title delay test (method 2) by zhuoxu'
 tplh             tphl             temper           alter#            
  5.394e-11        3.722e-11         25.0000           1.0000         
