***** HSPICE  --  A-2007.09  32-BIT    (Aug 28 2007) 00:36:30 04/26/2020 winnt
 Input File: f:\vlsiexp\exp3_tsetup\t_setup.sp
 lic:
 lic: FLEXlm: v8.5b
 lic: USER:   c1119                HOSTNAME: ZHUOXUPC
 lic: HOSTID: "54ee75d9c038 6014b36cfaf6 00ff9dc7e326 00ffd6dbca79 0a0027000008
 lic: Using FLEXlm license file:
 lic: C:\synopsys\Hspice_A-2007.09\license.dat
 lic: Checkout 1 hspice;  Encryption code: AD47C1C891DA5D596A45
 lic: License/Maintenance for hspice will expire on 31-dec-2020/2007.9
 lic: NODE LOCKED license on hostid "54ee75d9c038 6014b36cfaf6 00ff9dc7e326 00ff
 lic:
 Init: hspice initialization file: C:\synopsys\Hspice_A-2007.09\hspice.ini
 init: begin read circuit files,  cpu clock=  1.56E-01
       option post
       option brief
 init: end read circuit files,  cpu clock=  1.68E-01 memory=    158 kb
 init: begin check errors,  cpu clock=  1.68E-01
 init: end check errors,  cpu clock=  1.88E-01 memory=    782 kb
 init: begin setup matrix, pivot=    10 cpu clock=  1.88E-01
       establish matrix -- done,  cpu clock=  1.92E-01 memory=    800 kb
       re-order matrix -- done,  cpu clock=  1.95E-01 memory=    807 kb
 init: end setup matrix,  cpu clock=  1.98E-01 memory=    835 kb
 dcop: begin dcop,  cpu clock=  2.00E-01
 dcop: end dcop,  cpu clock=  2.05E-01 memory=    835 kb  tot_iter=      14
 sweep: parameter       parameter1       begin, #sweeps = 501
 parameter: datariseat      =    1.50E-10
 dcop: begin dcop,  cpu clock=  2.26E-01
 dcop: end dcop,  cpu clock=  2.35E-01 memory=    835 kb  tot_iter=      28
 output: f:\vlsiexp\exp3_tsetup\t_setup.mt0
 sweep: tran tran1    begin, stop_t=  3.00E-10 #sweeps=3001 cpu clock=  2.48E-01
 tran: time= 3.00000E-11 tot_iter=      49   conv_iter=      20
 tran: time= 6.10341E-11 tot_iter=     105   conv_iter=      41
 tran: time= 9.48495E-11 tot_iter=     119   conv_iter=      46
 tran: time= 1.33137E-10 tot_iter=     125   conv_iter=      49
 tran: time= 1.50000E-10 tot_iter=     129   conv_iter=      51
 tran: time= 1.80489E-10 tot_iter=     190   conv_iter=      73
 tran: time= 2.11380E-10 tot_iter=     257   conv_iter=      97
 tran: time= 2.41869E-10 tot_iter=     287   conv_iter=     107
 tran: time= 2.74573E-10 tot_iter=     299   conv_iter=     112
 tran: time= 3.00000E-10 tot_iter=     303   conv_iter=     114
 sweep: tran tran1    end,  cpu clock=  3.40E-01 memory=    836 kb
 parameter: datariseat      =    1.50E-10
 dcop: begin dcop,  cpu clock=  3.53E-01
 dcop: end dcop,  cpu clock=  3.59E-01 memory=    835 kb  tot_iter=      42
 output: f:\vlsiexp\exp3_tsetup\t_setup.mt0
 sweep: tran tran2    begin, stop_t=  3.00E-10 #sweeps=3001 cpu clock=  3.74E-01
 tran: time= 3.00000E-11 tot_iter=      49   conv_iter=      20
 tran: time= 6.10341E-11 tot_iter=     105   conv_iter=      41
 tran: time= 9.48495E-11 tot_iter=     119   conv_iter=      46
 tran: time= 1.33137E-10 tot_iter=     125   conv_iter=      49
 tran: time= 1.50010E-10 tot_iter=     129   conv_iter=      51
 tran: time= 1.80499E-10 tot_iter=     190   conv_iter=      73
 tran: time= 2.11399E-10 tot_iter=     257   conv_iter=      97
 tran: time= 2.41501E-10 tot_iter=     287   conv_iter=     107
 tran: time= 2.74428E-10 tot_iter=     299   conv_iter=     112
 tran: time= 3.00000E-10 tot_iter=     303   conv_iter=     114
 sweep: tran tran2    end,  cpu clock=  4.85E-01 memory=    836 kb
 parameter: datariseat      =    1.50E-10
 dcop: begin dcop,  cpu clock=  4.97E-01
 dcop: end dcop,  cpu clock=  5.06E-01 memory=    835 kb  tot_iter=      56
 output: f:\vlsiexp\exp3_tsetup\t_setup.mt0
 sweep: tran tran3    begin, stop_t=  3.00E-10 #sweeps=3001 cpu clock=  5.20E-01
 tran: time= 3.00000E-11 tot_iter=      49   conv_iter=      20
 tran: time= 6.10341E-11 tot_iter=     105   conv_iter=      41
 tran: time= 9.48495E-11 tot_iter=     119   conv_iter=      46
 tran: time= 1.33137E-10 tot_iter=     125   conv_iter=      49
 tran: time= 1.50020E-10 tot_iter=     129   conv_iter=      51
 tran: time= 1.80508E-10 tot_iter=     190   conv_iter=      73
 tran: time= 2.11418E-10 tot_iter=     257   conv_iter=      97
 tran: time= 2.40898E-10 tot_iter=     287   conv_iter=     107
 tran: time= 2.73459E-10 tot_iter=     299   conv_iter=     112
 tran: time= 3.00000E-10 tot_iter=     303   conv_iter=     114
 sweep: tran tran3    end,  cpu clock=  6.25E-01 memory=    836 kb
 parameter: datariseat      =    1.50E-10
 dcop: begin dcop,  cpu clock=  6.40E-01
 dcop: end dcop,  cpu clock=  6.48E-01 memory=    835 kb  tot_iter=      70
 output: f:\vlsiexp\exp3_tsetup\t_setup.mt0
 sweep: tran tran4    begin, stop_t=  3.00E-10 #sweeps=3001 cpu clock=  6.62E-01
 tran: time= 3.00000E-11 tot_iter=      49   conv_iter=      20
 tran: time= 6.10341E-11 tot_iter=     105   conv_iter=      41
 tran: time= 9.48495E-11 tot_iter=     119   conv_iter=      46
 tran: time= 1.33137E-10 tot_iter=     125   conv_iter=      49
 tran: time= 1.50030E-10 tot_iter=     129   conv_iter=      51
 tran: time= 1.80518E-10 tot_iter=     190   conv_iter=      73
 tran: time= 2.11437E-10 tot_iter=     257   conv_iter=      97
 tran: time= 2.40604E-10 tot_iter=     288   conv_iter=     107
 tran: time= 2.73579E-10 tot_iter=     301   conv_iter=     112
 tran: time= 3.00000E-10 tot_iter=     305   conv_iter=     114
 sweep: tran tran4    end,  cpu clock=  7.64E-01 memory=    836 kb
 parameter: datariseat      =    1.50E-10
 dcop: begin dcop,  cpu clock=  7.75E-01
 dcop: end dcop,  cpu clock=  7.82E-01 memory=    835 kb  tot_iter=      84
 output: f:\vlsiexp\exp3_tsetup\t_setup.mt0
 sweep: tran tran5    begin, stop_t=  3.00E-10 #sweeps=3001 cpu clock=  7.96E-01
 tran: time= 3.00000E-11 tot_iter=      49   conv_iter=      20
 tran: time= 6.10341E-11 tot_iter=     105   conv_iter=      41
 tran: time= 9.48495E-11 tot_iter=     119   conv_iter=      46
 tran: time= 1.33137E-10 tot_iter=     125   conv_iter=      49
 tran: time= 1.50040E-10 tot_iter=     129   conv_iter=      51
 tran: time= 1.80528E-10 tot_iter=     190   conv_iter=      73
 tran: time= 2.11456E-10 tot_iter=     257   conv_iter=      97
 tran: time= 2.40500E-10 tot_iter=     288   conv_iter=     107
 tran: time= 2.73580E-10 tot_iter=     301   conv_iter=     112
 tran: time= 3.00000E-10 tot_iter=     305   conv_iter=     114
 sweep: tran tran5    end,  cpu clock=  8.97E-01 memory=    836 kb
 parameter: datariseat      =    1.50E-10
 dcop: begin dcop,  cpu clock=  9.11E-01
 dcop: end dcop,  cpu clock=  9.18E-01 memory=    835 kb  tot_iter=      98
 output: f:\vlsiexp\exp3_tsetup\t_setup.mt0
 sweep: tran tran6    begin, stop_t=  3.00E-10 #sweeps=3001 cpu clock=  9.32E-01
 tran: time= 3.00000E-11 tot_iter=      49   conv_iter=      20
 tran: time= 6.10341E-11 tot_iter=     105   conv_iter=      41
 tran: time= 9.48495E-11 tot_iter=     119   conv_iter=      46
 tran: time= 1.33137E-10 tot_iter=     125   conv_iter=      49
 tran: time= 1.50050E-10 tot_iter=     129   conv_iter=      51
 tran: time= 1.80538E-10 tot_iter=     190   conv_iter=      73
 tran: time= 2.11475E-10 tot_iter=     257   conv_iter=      97
 tran: time= 2.40506E-10 tot_iter=     288   conv_iter=     107
 tran: time= 2.73784E-10 tot_iter=     301   conv_iter=     112
 tran: time= 3.00000E-10 tot_iter=     305   conv_iter=     114
 sweep: tran tran6    end,  cpu clock=  1.03E+00 memory=    836 kb
 parameter: datariseat      =    1.50E-10
 dcop: begin dcop,  cpu clock=  1.04E+00
 dcop: end dcop,  cpu clock=  1.05E+00 memory=    835 kb  tot_iter=     112
 output: f:\vlsiexp\exp3_tsetup\t_setup.mt0
 sweep: tran tran7    begin, stop_t=  3.00E-10 #sweeps=3001 cpu clock=  1.07E+00
 tran: time= 3.00000E-11 tot_iter=      49   conv_iter=      20
 tran: time= 6.10341E-11 tot_iter=     105   conv_iter=      41
 tran: time= 9.48495E-11 tot_iter=     119   conv_iter=      46
 tran: time= 1.33137E-10 tot_iter=     125   conv_iter=      49
 tran: time= 1.50060E-10 tot_iter=     129   conv_iter=      51
 tran: time= 1.80548E-10 tot_iter=     190   conv_iter=      73
 tran: time= 2.11494E-10 tot_iter=     257   conv_iter=      97
 tran: time= 2.40574E-10 tot_iter=     288   conv_iter=     107
 tran: time= 2.74322E-10 tot_iter=     301   conv_iter=     112
 tran: time= 3.00000E-10 tot_iter=     305   conv_iter=     114
 sweep: tran tran7    end,  cpu clock=  1.18E+00 memory=    836 kb
 parameter: datariseat      =    1.50E-10
 dcop: begin dcop,  cpu clock=  1.19E+00
 dcop: end dcop,  cpu clock=  1.20E+00 memory=    835 kb  tot_iter=     126
 output: f:\vlsiexp\exp3_tsetup\t_setup.mt0
 sweep: tran tran8    begin, stop_t=  3.00E-10 #sweeps=3001 cpu clock=  1.21E+00
 tran: time= 3.00000E-11 tot_iter=      49   conv_iter=      20
 tran: time= 6.10341E-11 tot_iter=     105   conv_iter=      41
 tran: time= 9.48495E-11 tot_iter=     119   conv_iter=      46
 tran: time= 1.33137E-10 tot_iter=     125   conv_iter=      49
 tran: time= 1.50070E-10 tot_iter=     129   conv_iter=      51
 tran: time= 1.80558E-10 tot_iter=     190   conv_iter=      73
 tran: time= 2.11514E-10 tot_iter=     257   conv_iter=      97
 tran: time= 2.40701E-10 tot_iter=     288   conv_iter=     107
 tran: time= 2.75036E-10 tot_iter=     301   conv_iter=     112
 tran: time= 3.00000E-10 tot_iter=     305   conv_iter=     114
 sweep: tran tran8    end,  cpu clock=  1.32E+00 memory=    836 kb
 parameter: datariseat      =    1.50E-10
 dcop: begin dcop,  cpu clock=  1.33E+00
 dcop: end dcop,  cpu clock=  1.34E+00 memory=    835 kb  tot_iter=     140
 output: f:\vlsiexp\exp3_tsetup\t_setup.mt0
 sweep: tran tran9    begin, stop_t=  3.00E-10 #sweeps=3001 cpu clock=  1.35E+00
 tran: time= 3.00000E-11 tot_iter=      49   conv_iter=      20
 tran: time= 6.10341E-11 tot_iter=     105   conv_iter=      41
 tran: time= 9.48495E-11 tot_iter=     119   conv_iter=      46
 tran: time= 1.33137E-10 tot_iter=     125   conv_iter=      49
 tran: time= 1.50080E-10 tot_iter=     129   conv_iter=      51
 tran: time= 1.80568E-10 tot_iter=     190   conv_iter=      73
 tran: time= 2.11534E-10 tot_iter=     257   conv_iter=      97
 tran: time= 2.40769E-10 tot_iter=     288   conv_iter=     107
 tran: time= 2.75418E-10 tot_iter=     301   conv_iter=     112
 tran: time= 3.00000E-10 tot_iter=     305   conv_iter=     114
 sweep: tran tran9    end,  cpu clock=  1.46E+00 memory=    836 kb
 parameter: datariseat      =    1.50E-10
 dcop: begin dcop,  cpu clock=  1.47E+00
 dcop: end dcop,  cpu clock=  1.48E+00 memory=    835 kb  tot_iter=     154
 output: f:\vlsiexp\exp3_tsetup\t_setup.mt0
 sweep: tran tran10   begin, stop_t=  3.00E-10 #sweeps=3001 cpu clock=  1.50E+00
 tran: time= 3.00000E-11 tot_iter=      49   conv_iter=      20
 tran: time= 6.10341E-11 tot_iter=     105   conv_iter=      41
 tran: time= 9.48495E-11 tot_iter=     119   conv_iter=      46
 tran: time= 1.33137E-10 tot_iter=     125   conv_iter=      49
 tran: time= 1.50090E-10 tot_iter=     129   conv_iter=      51
 tran: time= 1.80578E-10 tot_iter=     190   conv_iter=      73
 tran: time= 2.11554E-10 tot_iter=     257   conv_iter=      97
 tran: time= 2.40521E-10 tot_iter=     288   conv_iter=     107
 tran: time= 2.74147E-10 tot_iter=     301   conv_iter=     112
 tran: time= 3.00000E-10 tot_iter=     305   conv_iter=     114
 sweep: tran tran10   end,  cpu clock=  1.61E+00 memory=    836 kb
 parameter: datariseat      =    1.50E-10
 dcop: begin dcop,  cpu clock=  1.62E+00
 dcop: end dcop,  cpu clock=  1.63E+00 memory=    835 kb  tot_iter=     168
 output: f:\vlsiexp\exp3_tsetup\t_setup.mt0
 sweep: tran tran11   begin, stop_t=  3.00E-10 #sweeps=3001 cpu clock=  1.65E+00
 tran: time= 3.00000E-11 tot_iter=      49   conv_iter=      20
 tran: time= 6.10341E-11 tot_iter=     105   conv_iter=      41
 tran: time= 9.48495E-11 tot_iter=     119   conv_iter=      46
 tran: time= 1.33137E-10 tot_iter=     125   conv_iter=      49
 tran: time= 1.50100E-10 tot_iter=     129   conv_iter=      51
 tran: time= 1.80588E-10 tot_iter=     190   conv_iter=      73
 tran: time= 2.11575E-10 tot_iter=     257   conv_iter=      97
 tran: time= 2.40350E-10 tot_iter=     288   conv_iter=     107
 tran: time= 2.73087E-10 tot_iter=     301   conv_iter=     112
 tran: time= 3.00000E-10 tot_iter=     305   conv_iter=     114
 sweep: tran tran11   end,  cpu clock=  1.75E+00 memory=    836 kb
 parameter: datariseat      =    1.50E-10
 dcop: begin dcop,  cpu clock=  1.76E+00
 dcop: end dcop,  cpu clock=  1.77E+00 memory=    835 kb  tot_iter=     182
 output: f:\vlsiexp\exp3_tsetup\t_setup.mt0
 sweep: tran tran12   begin, stop_t=  3.00E-10 #sweeps=3001 cpu clock=  1.78E+00
 tran: time= 3.00000E-11 tot_iter=      49   conv_iter=      20
 tran: time= 6.10341E-11 tot_iter=     105   conv_iter=      41
 tran: time= 9.48495E-11 tot_iter=     119   conv_iter=      46
 tran: time= 1.33137E-10 tot_iter=     125   conv_iter=      49
 tran: time= 1.50110E-10 tot_iter=     129   conv_iter=      51
 tran: time= 1.80598E-10 tot_iter=     190   conv_iter=      73
 tran: time= 2.11596E-10 tot_iter=     257   conv_iter=      97
 tran: time= 2.40235E-10 tot_iter=     288   conv_iter=     107
 tran: time= 2.72373E-10 tot_iter=     301   conv_iter=     112
 tran: time= 3.00000E-10 tot_iter=     305   conv_iter=     114
 sweep: tran tran12   end,  cpu clock=  1.89E+00 memory=    836 kb
 parameter: datariseat      =    1.50E-10
 dcop: begin dcop,  cpu clock=  1.90E+00
 dcop: end dcop,  cpu clock=  1.91E+00 memory=    835 kb  tot_iter=     196
 output: f:\vlsiexp\exp3_tsetup\t_setup.mt0
 sweep: tran tran13   begin, stop_t=  3.00E-10 #sweeps=3001 cpu clock=  1.93E+00
 tran: time= 3.00000E-11 tot_iter=      49   conv_iter=      20
 tran: time= 6.10341E-11 tot_iter=     105   conv_iter=      41
 tran: time= 9.48495E-11 tot_iter=     119   conv_iter=      46
 tran: time= 1.33137E-10 tot_iter=     125   conv_iter=      49
 tran: time= 1.50120E-10 tot_iter=     129   conv_iter=      51
 tran: time= 1.80608E-10 tot_iter=     190   conv_iter=      73
 tran: time= 2.11617E-10 tot_iter=     257   conv_iter=      97
 tran: time= 2.40162E-10 tot_iter=     288   conv_iter=     107
 tran: time= 2.71905E-10 tot_iter=     301   conv_iter=     112
 tran: time= 3.00000E-10 tot_iter=     305   conv_iter=     114
 sweep: tran tran13   end,  cpu clock=  2.02E+00 memory=    836 kb
 parameter: datariseat      =    1.50E-10
 dcop: begin dcop,  cpu clock=  2.04E+00
 dcop: end dcop,  cpu clock=  2.04E+00 memory=    835 kb  tot_iter=     210
 output: f:\vlsiexp\exp3_tsetup\t_setup.mt0
 sweep: tran tran14   begin, stop_t=  3.00E-10 #sweeps=3001 cpu clock=  2.06E+00
 tran: time= 3.00000E-11 tot_iter=      49   conv_iter=      20
 tran: time= 6.10341E-11 tot_iter=     105   conv_iter=      41
 tran: time= 9.48495E-11 tot_iter=     119   conv_iter=      46
 tran: time= 1.33137E-10 tot_iter=     125   conv_iter=      49
 tran: time= 1.50130E-10 tot_iter=     129   conv_iter=      51
 tran: time= 1.80617E-10 tot_iter=     190   conv_iter=      73
 tran: time= 2.11638E-10 tot_iter=     257   conv_iter=      97
 tran: time= 2.40119E-10 tot_iter=     288   conv_iter=     107
 tran: time= 2.71609E-10 tot_iter=     301   conv_iter=     112
 tran: time= 3.00000E-10 tot_iter=     305   conv_iter=     114
 sweep: tran tran14   end,  cpu clock=  2.15E+00 memory=    836 kb
 parameter: datariseat      =    1.50E-10
 dcop: begin dcop,  cpu clock=  2.17E+00
 dcop: end dcop,  cpu clock=  2.18E+00 memory=    835 kb  tot_iter=     224
 output: f:\vlsiexp\exp3_tsetup\t_setup.mt0
 sweep: tran tran15   begin, stop_t=  3.00E-10 #sweeps=3001 cpu clock=  2.19E+00
 tran: time= 3.00000E-11 tot_iter=      49   conv_iter=      20
 tran: time= 6.10341E-11 tot_iter=     105   conv_iter=      41
 tran: time= 9.48495E-11 tot_iter=     119   conv_iter=      46
 tran: time= 1.33137E-10 tot_iter=     125   conv_iter=      49
 tran: time= 1.50140E-10 tot_iter=     129   conv_iter=      51
 tran: time= 1.80627E-10 tot_iter=     190   conv_iter=      73
 tran: time= 2.11651E-10 tot_iter=     257   conv_iter=      97
 tran: time= 2.40122E-10 tot_iter=     287   conv_iter=     107
 tran: time= 2.71565E-10 tot_iter=     300   conv_iter=     112
 tran: time= 3.00000E-10 tot_iter=     304   conv_iter=     114
 sweep: tran tran15   end,  cpu clock=  2.29E+00 memory=    836 kb
 parameter: datariseat      =    1.50E-10
 dcop: begin dcop,  cpu clock=  2.31E+00
 dcop: end dcop,  cpu clock=  2.31E+00 memory=    835 kb  tot_iter=     238
 output: f:\vlsiexp\exp3_tsetup\t_setup.mt0
 sweep: tran tran16   begin, stop_t=  3.00E-10 #sweeps=3001 cpu clock=  2.33E+00
 tran: time= 3.00000E-11 tot_iter=      49   conv_iter=      20
 tran: time= 6.10341E-11 tot_iter=     105   conv_iter=      41
 tran: time= 9.48495E-11 tot_iter=     119   conv_iter=      46
 tran: time= 1.33137E-10 tot_iter=     125   conv_iter=      49
 tran: time= 1.50150E-10 tot_iter=     129   conv_iter=      51
 tran: time= 1.80637E-10 tot_iter=     190   conv_iter=      73
 tran: time= 2.11661E-10 tot_iter=     257   conv_iter=      97
 tran: time= 2.40112E-10 tot_iter=     287   conv_iter=     107
 tran: time= 2.71484E-10 tot_iter=     300   conv_iter=     112
 tran: time= 3.00000E-10 tot_iter=     304   conv_iter=     114
 sweep: tran tran16   end,  cpu clock=  2.43E+00 memory=    836 kb
 parameter: datariseat      =    1.50E-10
 dcop: begin dcop,  cpu clock=  2.44E+00
 dcop: end dcop,  cpu clock=  2.45E+00 memory=    835 kb  tot_iter=     252
 output: f:\vlsiexp\exp3_tsetup\t_setup.mt0
 sweep: tran tran17   begin, stop_t=  3.00E-10 #sweeps=3001 cpu clock=  2.47E+00
 tran: time= 3.00000E-11 tot_iter=      49   conv_iter=      20
 tran: time= 6.10341E-11 tot_iter=     105   conv_iter=      41
 tran: time= 9.48495E-11 tot_iter=     119   conv_iter=      46
 tran: time= 1.33137E-10 tot_iter=     125   conv_iter=      49
 tran: time= 1.50160E-10 tot_iter=     129   conv_iter=      51
 tran: time= 1.80647E-10 tot_iter=     190   conv_iter=      73
 tran: time= 2.11672E-10 tot_iter=     257   conv_iter=      97
 tran: time= 2.40105E-10 tot_iter=     287   conv_iter=     107
 tran: time= 2.71423E-10 tot_iter=     300   conv_iter=     112
 tran: time= 3.00000E-10 tot_iter=     304   conv_iter=     114
 sweep: tran tran17   end,  cpu clock=  2.58E+00 memory=    836 kb
 parameter: datariseat      =    1.50E-10
 dcop: begin dcop,  cpu clock=  2.59E+00
 dcop: end dcop,  cpu clock=  2.60E+00 memory=    835 kb  tot_iter=     266
 output: f:\vlsiexp\exp3_tsetup\t_setup.mt0
 sweep: tran tran18   begin, stop_t=  3.00E-10 #sweeps=3001 cpu clock=  2.62E+00
 tran: time= 3.00000E-11 tot_iter=      49   conv_iter=      20
 tran: time= 6.10341E-11 tot_iter=     105   conv_iter=      41
 tran: time= 9.48495E-11 tot_iter=     119   conv_iter=      46
 tran: time= 1.33137E-10 tot_iter=     125   conv_iter=      49
 tran: time= 1.50170E-10 tot_iter=     129   conv_iter=      51
 tran: time= 1.80657E-10 tot_iter=     190   conv_iter=      73
 tran: time= 2.11683E-10 tot_iter=     257   conv_iter=      97
 tran: time= 2.40101E-10 tot_iter=     287   conv_iter=     107
 tran: time= 2.71377E-10 tot_iter=     300   conv_iter=     112
 tran: time= 3.00000E-10 tot_iter=     304   conv_iter=     114
 sweep: tran tran18   end,  cpu clock=  2.74E+00 memory=    836 kb
 parameter: datariseat      =    1.50E-10
 dcop: begin dcop,  cpu clock=  2.75E+00
 dcop: end dcop,  cpu clock=  2.76E+00 memory=    835 kb  tot_iter=     280
 output: f:\vlsiexp\exp3_tsetup\t_setup.mt0
 sweep: tran tran19   begin, stop_t=  3.00E-10 #sweeps=3001 cpu clock=  2.77E+00
 tran: time= 3.00000E-11 tot_iter=      49   conv_iter=      20
 tran: time= 6.10341E-11 tot_iter=     105   conv_iter=      41
 tran: time= 9.48495E-11 tot_iter=     119   conv_iter=      46
 tran: time= 1.33137E-10 tot_iter=     125   conv_iter=      49
 tran: time= 1.50180E-10 tot_iter=     129   conv_iter=      51
 tran: time= 1.80667E-10 tot_iter=     190   conv_iter=      73
 tran: time= 2.11694E-10 tot_iter=     257   conv_iter=      97
 tran: time= 2.40099E-10 tot_iter=     287   conv_iter=     107
 tran: time= 2.71401E-10 tot_iter=     300   conv_iter=     112
 tran: time= 3.00000E-10 tot_iter=     304   conv_iter=     114
 sweep: tran tran19   end,  cpu clock=  2.87E+00 memory=    836 kb
 parameter: datariseat      =    1.50E-10
 dcop: begin dcop,  cpu clock=  2.88E+00
 dcop: end dcop,  cpu clock=  2.89E+00 memory=    835 kb  tot_iter=     294
 output: f:\vlsiexp\exp3_tsetup\t_setup.mt0
 sweep: tran tran20   begin, stop_t=  3.00E-10 #sweeps=3001 cpu clock=  2.91E+00
 tran: time= 3.00000E-11 tot_iter=      49   conv_iter=      20
 tran: time= 6.10341E-11 tot_iter=     105   conv_iter=      41
 tran: time= 9.48495E-11 tot_iter=     119   conv_iter=      46
 tran: time= 1.33137E-10 tot_iter=     125   conv_iter=      49
 tran: time= 1.50190E-10 tot_iter=     129   conv_iter=      51
 tran: time= 1.80677E-10 tot_iter=     190   conv_iter=      73
 tran: time= 2.11705E-10 tot_iter=     257   conv_iter=      97
 tran: time= 2.40096E-10 tot_iter=     287   conv_iter=     107
 tran: time= 2.71362E-10 tot_iter=     300   conv_iter=     112
 tran: time= 3.00000E-10 tot_iter=     304   conv_iter=     114
 sweep: tran tran20   end,  cpu clock=  3.00E+00 memory=    836 kb
 parameter: datariseat      =    1.50E-10
 dcop: begin dcop,  cpu clock=  3.02E+00
 dcop: end dcop,  cpu clock=  3.02E+00 memory=    835 kb  tot_iter=     308
 output: f:\vlsiexp\exp3_tsetup\t_setup.mt0
 sweep: tran tran21   begin, stop_t=  3.00E-10 #sweeps=3001 cpu clock=  3.04E+00
 tran: time= 3.00000E-11 tot_iter=      49   conv_iter=      20
 tran: time= 6.10341E-11 tot_iter=     105   conv_iter=      41
 tran: time= 9.48495E-11 tot_iter=     119   conv_iter=      46
 tran: time= 1.33137E-10 tot_iter=     125   conv_iter=      49
 tran: time= 1.50200E-10 tot_iter=     129   conv_iter=      51
 tran: time= 1.80687E-10 tot_iter=     190   conv_iter=      73
 tran: time= 2.11717E-10 tot_iter=     257   conv_iter=      97
 tran: time= 2.40093E-10 tot_iter=     287   conv_iter=     107
 tran: time= 2.71324E-10 tot_iter=     300   conv_iter=     112
 tran: time= 3.00000E-10 tot_iter=     304   conv_iter=     114
 sweep: tran tran21   end,  cpu clock=  3.13E+00 memory=    836 kb
 parameter: datariseat      =    1.50E-10
 dcop: begin dcop,  cpu clock=  3.15E+00
 dcop: end dcop,  cpu clock=  3.15E+00 memory=    835 kb  tot_iter=     322
 output: f:\vlsiexp\exp3_tsetup\t_setup.mt0
 sweep: tran tran22   begin, stop_t=  3.00E-10 #sweeps=3001 cpu clock=  3.17E+00
 tran: time= 3.00000E-11 tot_iter=      49   conv_iter=      20
 tran: time= 6.10341E-11 tot_iter=     105   conv_iter=      41
 tran: time= 9.48495E-11 tot_iter=     119   conv_iter=      46
 tran: time= 1.33137E-10 tot_iter=     125   conv_iter=      49
 tran: time= 1.50210E-10 tot_iter=     129   conv_iter=      51
 tran: time= 1.80697E-10 tot_iter=     190   conv_iter=      73
 tran: time= 2.11730E-10 tot_iter=     256   conv_iter=      97
 tran: time= 2.40090E-10 tot_iter=     286   conv_iter=     107
 tran: time= 2.71285E-10 tot_iter=     299   conv_iter=     112
 tran: time= 3.00000E-10 tot_iter=     303   conv_iter=     114
 sweep: tran tran22   end,  cpu clock=  3.30E+00 memory=    836 kb
 parameter: datariseat      =    1.50E-10
 dcop: begin dcop,  cpu clock=  3.31E+00
 dcop: end dcop,  cpu clock=  3.32E+00 memory=    835 kb  tot_iter=     336
 output: f:\vlsiexp\exp3_tsetup\t_setup.mt0
 sweep: tran tran23   begin, stop_t=  3.00E-10 #sweeps=3001 cpu clock=  3.33E+00
 tran: time= 3.00000E-11 tot_iter=      49   conv_iter=      20
 tran: time= 6.10341E-11 tot_iter=     105   conv_iter=      41
 tran: time= 9.48495E-11 tot_iter=     119   conv_iter=      46
 tran: time= 1.33137E-10 tot_iter=     125   conv_iter=      49
 tran: time= 1.50220E-10 tot_iter=     129   conv_iter=      51
 tran: time= 1.80707E-10 tot_iter=     190   conv_iter=      73
 tran: time= 2.11742E-10 tot_iter=     256   conv_iter=      97
 tran: time= 2.40083E-10 tot_iter=     286   conv_iter=     107
 tran: time= 2.71233E-10 tot_iter=     299   conv_iter=     112
 tran: time= 3.00000E-10 tot_iter=     303   conv_iter=     114
 sweep: tran tran23   end,  cpu clock=  3.44E+00 memory=    836 kb
 parameter: datariseat      =    1.50E-10
 dcop: begin dcop,  cpu clock=  3.46E+00
 dcop: end dcop,  cpu clock=  3.46E+00 memory=    835 kb  tot_iter=     350
 output: f:\vlsiexp\exp3_tsetup\t_setup.mt0
 sweep: tran tran24   begin, stop_t=  3.00E-10 #sweeps=3001 cpu clock=  3.48E+00
 tran: time= 3.00000E-11 tot_iter=      49   conv_iter=      20
 tran: time= 6.10341E-11 tot_iter=     105   conv_iter=      41
 tran: time= 9.48495E-11 tot_iter=     119   conv_iter=      46
 tran: time= 1.33137E-10 tot_iter=     125   conv_iter=      49
 tran: time= 1.50230E-10 tot_iter=     129   conv_iter=      51
 tran: time= 1.80717E-10 tot_iter=     190   conv_iter=      73
 tran: time= 2.11754E-10 tot_iter=     256   conv_iter=      97
 tran: time= 2.40072E-10 tot_iter=     286   conv_iter=     107
 tran: time= 2.71167E-10 tot_iter=     299   conv_iter=     112
 tran: time= 3.00000E-10 tot_iter=     303   conv_iter=     114
 sweep: tran tran24   end,  cpu clock=  3.58E+00 memory=    836 kb
 parameter: datariseat      =    1.50E-10
 dcop: begin dcop,  cpu clock=  3.60E+00
 dcop: end dcop,  cpu clock=  3.61E+00 memory=    835 kb  tot_iter=     364
 output: f:\vlsiexp\exp3_tsetup\t_setup.mt0
 sweep: tran tran25   begin, stop_t=  3.00E-10 #sweeps=3001 cpu clock=  3.62E+00
 tran: time= 3.00000E-11 tot_iter=      49   conv_iter=      20
 tran: time= 6.10341E-11 tot_iter=     105   conv_iter=      41
 tran: time= 9.48495E-11 tot_iter=     119   conv_iter=      46
 tran: time= 1.33137E-10 tot_iter=     125   conv_iter=      49
 tran: time= 1.50240E-10 tot_iter=     129   conv_iter=      51
 tran: time= 1.80727E-10 tot_iter=     190   conv_iter=      73
 tran: time= 2.11767E-10 tot_iter=     256   conv_iter=      97
 tran: time= 2.40058E-10 tot_iter=     286   conv_iter=     107
 tran: time= 2.71082E-10 tot_iter=     299   conv_iter=     112
 tran: time= 3.00000E-10 tot_iter=     303   conv_iter=     114
 sweep: tran tran25   end,  cpu clock=  3.72E+00 memory=    836 kb
 parameter: datariseat      =    1.50E-10
 dcop: begin dcop,  cpu clock=  3.73E+00
 dcop: end dcop,  cpu clock=  3.74E+00 memory=    835 kb  tot_iter=     378
 output: f:\vlsiexp\exp3_tsetup\t_setup.mt0
 sweep: tran tran26   begin, stop_t=  3.00E-10 #sweeps=3001 cpu clock=  3.76E+00
 tran: time= 3.00000E-11 tot_iter=      49   conv_iter=      20
 tran: time= 6.10341E-11 tot_iter=     105   conv_iter=      41
 tran: time= 9.48495E-11 tot_iter=     119   conv_iter=      46
 tran: time= 1.33137E-10 tot_iter=     125   conv_iter=      49
 tran: time= 1.50250E-10 tot_iter=     129   conv_iter=      51
 tran: time= 1.80737E-10 tot_iter=     190   conv_iter=      73
 tran: time= 2.11779E-10 tot_iter=     256   conv_iter=      97
 tran: time= 2.40038E-10 tot_iter=     286   conv_iter=     107
 tran: time= 2.70976E-10 tot_iter=     299   conv_iter=     112
 tran: time= 3.00000E-10 tot_iter=     303   conv_iter=     114
 sweep: tran tran26   end,  cpu clock=  3.86E+00 memory=    836 kb
 parameter: datariseat      =    1.50E-10
 dcop: begin dcop,  cpu clock=  3.87E+00
 dcop: end dcop,  cpu clock=  3.88E+00 memory=    835 kb  tot_iter=     392
 output: f:\vlsiexp\exp3_tsetup\t_setup.mt0
 sweep: tran tran27   begin, stop_t=  3.00E-10 #sweeps=3001 cpu clock=  3.90E+00
 tran: time= 3.00000E-11 tot_iter=      49   conv_iter=      20
 tran: time= 6.10341E-11 tot_iter=     105   conv_iter=      41
 tran: time= 9.48495E-11 tot_iter=     119   conv_iter=      46
 tran: time= 1.33137E-10 tot_iter=     125   conv_iter=      49
 tran: time= 1.50260E-10 tot_iter=     129   conv_iter=      51
 tran: time= 1.80747E-10 tot_iter=     190   conv_iter=      73
 tran: time= 2.11792E-10 tot_iter=     256   conv_iter=      97
 tran: time= 2.40014E-10 tot_iter=     286   conv_iter=     107
 tran: time= 2.70847E-10 tot_iter=     299   conv_iter=     112
 tran: time= 3.00000E-10 tot_iter=     303   conv_iter=     114
 sweep: tran tran27   end,  cpu clock=  4.00E+00 memory=    836 kb
 parameter: datariseat      =    1.50E-10
 dcop: begin dcop,  cpu clock=  4.02E+00
 dcop: end dcop,  cpu clock=  4.03E+00 memory=    835 kb  tot_iter=     406
 output: f:\vlsiexp\exp3_tsetup\t_setup.mt0
 sweep: tran tran28   begin, stop_t=  3.00E-10 #sweeps=3001 cpu clock=  4.04E+00
 tran: time= 3.00000E-11 tot_iter=      49   conv_iter=      20
 tran: time= 6.10341E-11 tot_iter=     105   conv_iter=      41
 tran: time= 9.48495E-11 tot_iter=     119   conv_iter=      46
 tran: time= 1.33137E-10 tot_iter=     125   conv_iter=      49
 tran: time= 1.50270E-10 tot_iter=     129   conv_iter=      51
 tran: time= 1.80757E-10 tot_iter=     190   conv_iter=      73
 tran: time= 2.11806E-10 tot_iter=     256   conv_iter=      97
 tran: time= 2.42194E-10 tot_iter=     289   conv_iter=     108
 tran: time= 2.70695E-10 tot_iter=     299   conv_iter=     112
 tran: time= 3.00000E-10 tot_iter=     303   conv_iter=     114
 sweep: tran tran28   end,  cpu clock=  4.17E+00 memory=    836 kb
 parameter: datariseat      =    1.50E-10
 dcop: begin dcop,  cpu clock=  4.18E+00
 dcop: end dcop,  cpu clock=  4.19E+00 memory=    835 kb  tot_iter=     420
 output: f:\vlsiexp\exp3_tsetup\t_setup.mt0
 sweep: tran tran29   begin, stop_t=  3.00E-10 #sweeps=3001 cpu clock=  4.21E+00
 tran: time= 3.00000E-11 tot_iter=      49   conv_iter=      20
 tran: time= 6.10341E-11 tot_iter=     105   conv_iter=      41
 tran: time= 9.48495E-11 tot_iter=     119   conv_iter=      46
 tran: time= 1.33137E-10 tot_iter=     125   conv_iter=      49
 tran: time= 1.50280E-10 tot_iter=     129   conv_iter=      51
 tran: time= 1.80766E-10 tot_iter=     190   conv_iter=      73
 tran: time= 2.11819E-10 tot_iter=     256   conv_iter=      97
 tran: time= 2.42158E-10 tot_iter=     289   conv_iter=     108
 tran: time= 2.70523E-10 tot_iter=     299   conv_iter=     112
 tran: time= 3.00000E-10 tot_iter=     303   conv_iter=     114
 sweep: tran tran29   end,  cpu clock=  4.32E+00 memory=    836 kb
 parameter: datariseat      =    1.50E-10
 dcop: begin dcop,  cpu clock=  4.33E+00
 dcop: end dcop,  cpu clock=  4.34E+00 memory=    835 kb  tot_iter=     434
 output: f:\vlsiexp\exp3_tsetup\t_setup.mt0
 sweep: tran tran30   begin, stop_t=  3.00E-10 #sweeps=3001 cpu clock=  4.36E+00
 tran: time= 3.00000E-11 tot_iter=      49   conv_iter=      20
 tran: time= 6.10341E-11 tot_iter=     105   conv_iter=      41
 tran: time= 9.48495E-11 tot_iter=     119   conv_iter=      46
 tran: time= 1.33137E-10 tot_iter=     125   conv_iter=      49
 tran: time= 1.50290E-10 tot_iter=     129   conv_iter=      51
 tran: time= 1.80776E-10 tot_iter=     190   conv_iter=      73
 tran: time= 2.11832E-10 tot_iter=     256   conv_iter=      97
 tran: time= 2.42118E-10 tot_iter=     289   conv_iter=     108
 tran: time= 2.70333E-10 tot_iter=     299   conv_iter=     112
 tran: time= 3.00000E-10 tot_iter=     303   conv_iter=     114
 sweep: tran tran30   end,  cpu clock=  4.46E+00 memory=    836 kb
 parameter: datariseat      =    1.50E-10
 dcop: begin dcop,  cpu clock=  4.48E+00
 dcop: end dcop,  cpu clock=  4.49E+00 memory=    835 kb  tot_iter=     448
 output: f:\vlsiexp\exp3_tsetup\t_setup.mt0
 sweep: tran tran31   begin, stop_t=  3.00E-10 #sweeps=3001 cpu clock=  4.51E+00
 tran: time= 3.00000E-11 tot_iter=      49   conv_iter=      20
 tran: time= 6.10341E-11 tot_iter=     105   conv_iter=      41
 tran: time= 9.48495E-11 tot_iter=     119   conv_iter=      46
 tran: time= 1.33137E-10 tot_iter=     125   conv_iter=      49
 tran: time= 1.50300E-10 tot_iter=     129   conv_iter=      51
 tran: time= 1.80785E-10 tot_iter=     190   conv_iter=      73
 tran: time= 2.11846E-10 tot_iter=     256   conv_iter=      97
 tran: time= 2.42075E-10 tot_iter=     289   conv_iter=     108
 tran: time= 2.70127E-10 tot_iter=     299   conv_iter=     112
 tran: time= 3.00000E-10 tot_iter=     303   conv_iter=     114
 sweep: tran tran31   end,  cpu clock=  4.62E+00 memory=    836 kb
 parameter: datariseat      =    1.50E-10
 dcop: begin dcop,  cpu clock=  4.63E+00
 dcop: end dcop,  cpu clock=  4.64E+00 memory=    835 kb  tot_iter=     462
 output: f:\vlsiexp\exp3_tsetup\t_setup.mt0
 sweep: tran tran32   begin, stop_t=  3.00E-10 #sweeps=3001 cpu clock=  4.66E+00
 tran: time= 3.00000E-11 tot_iter=      49   conv_iter=      20
 tran: time= 6.10341E-11 tot_iter=     105   conv_iter=      41
 tran: time= 9.48495E-11 tot_iter=     119   conv_iter=      46
 tran: time= 1.33137E-10 tot_iter=     125   conv_iter=      49
 tran: time= 1.50310E-10 tot_iter=     129   conv_iter=      51
 tran: time= 1.80794E-10 tot_iter=     190   conv_iter=      73
 tran: time= 2.11860E-10 tot_iter=     256   conv_iter=      97
 tran: time= 2.42029E-10 tot_iter=     289   conv_iter=     108
 tran: time= 2.84907E-10 tot_iter=     301   conv_iter=     113
 tran: time= 3.00000E-10 tot_iter=     303   conv_iter=     114
 sweep: tran tran32   end,  cpu clock=  4.77E+00 memory=    836 kb
 parameter: datariseat      =    1.50E-10
 dcop: begin dcop,  cpu clock=  4.78E+00
 dcop: end dcop,  cpu clock=  4.79E+00 memory=    835 kb  tot_iter=     476
 output: f:\vlsiexp\exp3_tsetup\t_setup.mt0
 sweep: tran tran33   begin, stop_t=  3.00E-10 #sweeps=3001 cpu clock=  4.80E+00
 tran: time= 3.00000E-11 tot_iter=      49   conv_iter=      20
 tran: time= 6.10341E-11 tot_iter=     105   conv_iter=      41
 tran: time= 9.48495E-11 tot_iter=     119   conv_iter=      46
 tran: time= 1.33137E-10 tot_iter=     125   conv_iter=      49
 tran: time= 1.50320E-10 tot_iter=     129   conv_iter=      51
 tran: time= 1.80803E-10 tot_iter=     190   conv_iter=      73
 tran: time= 2.11874E-10 tot_iter=     256   conv_iter=      97
 tran: time= 2.41980E-10 tot_iter=     289   conv_iter=     108
 tran: time= 2.84677E-10 tot_iter=     301   conv_iter=     113
 tran: time= 3.00000E-10 tot_iter=     303   conv_iter=     114
 sweep: tran tran33   end,  cpu clock=  4.90E+00 memory=    836 kb
 parameter: datariseat      =    1.50E-10
 dcop: begin dcop,  cpu clock=  4.91E+00
 dcop: end dcop,  cpu clock=  4.92E+00 memory=    835 kb  tot_iter=     490
 output: f:\vlsiexp\exp3_tsetup\t_setup.mt0
 sweep: tran tran34   begin, stop_t=  3.00E-10 #sweeps=3001 cpu clock=  4.93E+00
 tran: time= 3.00000E-11 tot_iter=      49   conv_iter=      20
 tran: time= 6.10341E-11 tot_iter=     105   conv_iter=      41
 tran: time= 9.48495E-11 tot_iter=     119   conv_iter=      46
 tran: time= 1.33137E-10 tot_iter=     125   conv_iter=      49
 tran: time= 1.50330E-10 tot_iter=     129   conv_iter=      51
 tran: time= 1.80812E-10 tot_iter=     190   conv_iter=      73
 tran: time= 2.11888E-10 tot_iter=     256   conv_iter=      97
 tran: time= 2.41930E-10 tot_iter=     289   conv_iter=     108
 tran: time= 2.84442E-10 tot_iter=     301   conv_iter=     113
 tran: time= 3.00000E-10 tot_iter=     303   conv_iter=     114
 sweep: tran tran34   end,  cpu clock=  5.03E+00 memory=    836 kb
 parameter: datariseat      =    1.50E-10
 dcop: begin dcop,  cpu clock=  5.04E+00
 dcop: end dcop,  cpu clock=  5.05E+00 memory=    835 kb  tot_iter=     504
 output: f:\vlsiexp\exp3_tsetup\t_setup.mt0
 sweep: tran tran35   begin, stop_t=  3.00E-10 #sweeps=3001 cpu clock=  5.06E+00
 tran: time= 3.00000E-11 tot_iter=      49   conv_iter=      20
 tran: time= 6.10341E-11 tot_iter=     105   conv_iter=      41
 tran: time= 9.48495E-11 tot_iter=     119   conv_iter=      46
 tran: time= 1.33137E-10 tot_iter=     125   conv_iter=      49
 tran: time= 1.50340E-10 tot_iter=     129   conv_iter=      51
 tran: time= 1.80821E-10 tot_iter=     190   conv_iter=      73
 tran: time= 2.11902E-10 tot_iter=     256   conv_iter=      97
 tran: time= 2.41878E-10 tot_iter=     289   conv_iter=     108
 tran: time= 2.84203E-10 tot_iter=     301   conv_iter=     113
 tran: time= 3.00000E-10 tot_iter=     303   conv_iter=     114
 sweep: tran tran35   end,  cpu clock=  5.17E+00 memory=    836 kb
 parameter: datariseat      =    1.50E-10
 dcop: begin dcop,  cpu clock=  5.18E+00
 dcop: end dcop,  cpu clock=  5.19E+00 memory=    835 kb  tot_iter=     518
 output: f:\vlsiexp\exp3_tsetup\t_setup.mt0
 sweep: tran tran36   begin, stop_t=  3.00E-10 #sweeps=3001 cpu clock=  5.20E+00
 tran: time= 3.00000E-11 tot_iter=      49   conv_iter=      20
 tran: time= 6.10341E-11 tot_iter=     105   conv_iter=      41
 tran: time= 9.48495E-11 tot_iter=     119   conv_iter=      46
 tran: time= 1.33137E-10 tot_iter=     125   conv_iter=      49
 tran: time= 1.50350E-10 tot_iter=     129   conv_iter=      51
 tran: time= 1.80830E-10 tot_iter=     190   conv_iter=      73
 tran: time= 2.11917E-10 tot_iter=     256   conv_iter=      97
 tran: time= 2.41826E-10 tot_iter=     289   conv_iter=     108
 tran: time= 2.83925E-10 tot_iter=     301   conv_iter=     113
 tran: time= 3.00000E-10 tot_iter=     303   conv_iter=     114
 sweep: tran tran36   end,  cpu clock=  5.29E+00 memory=    836 kb
 parameter: datariseat      =    1.50E-10
 dcop: begin dcop,  cpu clock=  5.31E+00
 dcop: end dcop,  cpu clock=  5.32E+00 memory=    835 kb  tot_iter=     532
 output: f:\vlsiexp\exp3_tsetup\t_setup.mt0
 sweep: tran tran37   begin, stop_t=  3.00E-10 #sweeps=3001 cpu clock=  5.33E+00
 tran: time= 3.00000E-11 tot_iter=      49   conv_iter=      20
 tran: time= 6.10341E-11 tot_iter=     105   conv_iter=      41
 tran: time= 9.48495E-11 tot_iter=     119   conv_iter=      46
 tran: time= 1.33137E-10 tot_iter=     125   conv_iter=      49
 tran: time= 1.50360E-10 tot_iter=     129   conv_iter=      51
 tran: time= 1.80840E-10 tot_iter=     190   conv_iter=      73
 tran: time= 2.11932E-10 tot_iter=     256   conv_iter=      97
 tran: time= 2.41774E-10 tot_iter=     289   conv_iter=     108
 tran: time= 2.83687E-10 tot_iter=     301   conv_iter=     113
 tran: time= 3.00000E-10 tot_iter=     303   conv_iter=     114
 sweep: tran tran37   end,  cpu clock=  5.43E+00 memory=    836 kb
 parameter: datariseat      =    1.50E-10
 dcop: begin dcop,  cpu clock=  5.45E+00
 dcop: end dcop,  cpu clock=  5.45E+00 memory=    835 kb  tot_iter=     546
 output: f:\vlsiexp\exp3_tsetup\t_setup.mt0
 sweep: tran tran38   begin, stop_t=  3.00E-10 #sweeps=3001 cpu clock=  5.47E+00
 tran: time= 3.00000E-11 tot_iter=      49   conv_iter=      20
 tran: time= 6.10341E-11 tot_iter=     105   conv_iter=      41
 tran: time= 9.48495E-11 tot_iter=     119   conv_iter=      46
 tran: time= 1.33137E-10 tot_iter=     125   conv_iter=      49
 tran: time= 1.50370E-10 tot_iter=     129   conv_iter=      51
 tran: time= 1.80849E-10 tot_iter=     190   conv_iter=      73
 tran: time= 2.11947E-10 tot_iter=     256   conv_iter=      97
 tran: time= 2.41724E-10 tot_iter=     289   conv_iter=     108
 tran: time= 2.83461E-10 tot_iter=     301   conv_iter=     113
 tran: time= 3.00000E-10 tot_iter=     305   conv_iter=     115
 sweep: tran tran38   end,  cpu clock=  5.57E+00 memory=    836 kb
 parameter: datariseat      =    1.50E-10
 dcop: begin dcop,  cpu clock=  5.58E+00
 dcop: end dcop,  cpu clock=  5.59E+00 memory=    835 kb  tot_iter=     560
 output: f:\vlsiexp\exp3_tsetup\t_setup.mt0
 sweep: tran tran39   begin, stop_t=  3.00E-10 #sweeps=3001 cpu clock=  5.61E+00
 tran: time= 3.00000E-11 tot_iter=      49   conv_iter=      20
 tran: time= 6.10341E-11 tot_iter=     105   conv_iter=      41
 tran: time= 9.48495E-11 tot_iter=     119   conv_iter=      46
 tran: time= 1.33137E-10 tot_iter=     125   conv_iter=      49
 tran: time= 1.50380E-10 tot_iter=     129   conv_iter=      51
 tran: time= 1.80858E-10 tot_iter=     190   conv_iter=      73
 tran: time= 2.11962E-10 tot_iter=     256   conv_iter=      97
 tran: time= 2.41694E-10 tot_iter=     289   conv_iter=     108
 tran: time= 2.83330E-10 tot_iter=     301   conv_iter=     113
 tran: time= 3.00000E-10 tot_iter=     305   conv_iter=     115
 sweep: tran tran39   end,  cpu clock=  5.70E+00 memory=    836 kb
 parameter: datariseat      =    1.50E-10
 dcop: begin dcop,  cpu clock=  5.72E+00
 dcop: end dcop,  cpu clock=  5.72E+00 memory=    835 kb  tot_iter=     574
 output: f:\vlsiexp\exp3_tsetup\t_setup.mt0
 sweep: tran tran40   begin, stop_t=  3.00E-10 #sweeps=3001 cpu clock=  5.74E+00
 tran: time= 3.00000E-11 tot_iter=      49   conv_iter=      20
 tran: time= 6.10341E-11 tot_iter=     105   conv_iter=      41
 tran: time= 9.48495E-11 tot_iter=     119   conv_iter=      46
 tran: time= 1.33137E-10 tot_iter=     125   conv_iter=      49
 tran: time= 1.50390E-10 tot_iter=     129   conv_iter=      51
 tran: time= 1.80867E-10 tot_iter=     190   conv_iter=      73
 tran: time= 2.11977E-10 tot_iter=     256   conv_iter=      97
 tran: time= 2.41665E-10 tot_iter=     289   conv_iter=     108
 tran: time= 2.83200E-10 tot_iter=     301   conv_iter=     113
 tran: time= 3.00000E-10 tot_iter=     305   conv_iter=     115
 sweep: tran tran40   end,  cpu clock=  5.84E+00 memory=    836 kb
 parameter: datariseat      =    1.50E-10
 dcop: begin dcop,  cpu clock=  5.85E+00
 dcop: end dcop,  cpu clock=  5.86E+00 memory=    835 kb  tot_iter=     588
 output: f:\vlsiexp\exp3_tsetup\t_setup.mt0
 sweep: tran tran41   begin, stop_t=  3.00E-10 #sweeps=3001 cpu clock=  5.88E+00
 tran: time= 3.00000E-11 tot_iter=      49   conv_iter=      20
 tran: time= 6.10341E-11 tot_iter=     105   conv_iter=      41
 tran: time= 9.48495E-11 tot_iter=     119   conv_iter=      46
 tran: time= 1.33137E-10 tot_iter=     125   conv_iter=      49
 tran: time= 1.50400E-10 tot_iter=     129   conv_iter=      51
 tran: time= 1.80876E-10 tot_iter=     190   conv_iter=      73
 tran: time= 2.10002E-10 tot_iter=     253   conv_iter=      96
 tran: time= 2.41636E-10 tot_iter=     289   conv_iter=     108
 tran: time= 2.83071E-10 tot_iter=     301   conv_iter=     113
 tran: time= 3.00000E-10 tot_iter=     305   conv_iter=     115
 sweep: tran tran41   end,  cpu clock=  5.97E+00 memory=    836 kb
 parameter: datariseat      =    1.50E-10
 dcop: begin dcop,  cpu clock=  5.99E+00
 dcop: end dcop,  cpu clock=  6.00E+00 memory=    835 kb  tot_iter=     602
 output: f:\vlsiexp\exp3_tsetup\t_setup.mt0
 sweep: tran tran42   begin, stop_t=  3.00E-10 #sweeps=3001 cpu clock=  6.01E+00
 tran: time= 3.00000E-11 tot_iter=      49   conv_iter=      20
 tran: time= 6.10341E-11 tot_iter=     105   conv_iter=      41
 tran: time= 9.48495E-11 tot_iter=     119   conv_iter=      46
 tran: time= 1.33137E-10 tot_iter=     125   conv_iter=      49
 tran: time= 1.50410E-10 tot_iter=     129   conv_iter=      51
 tran: time= 1.80886E-10 tot_iter=     190   conv_iter=      73
 tran: time= 2.10018E-10 tot_iter=     253   conv_iter=      96
 tran: time= 2.41615E-10 tot_iter=     289   conv_iter=     108
 tran: time= 2.82981E-10 tot_iter=     301   conv_iter=     113
 tran: time= 3.00000E-10 tot_iter=     305   conv_iter=     115
 sweep: tran tran42   end,  cpu clock=  6.11E+00 memory=    836 kb
 parameter: datariseat      =    1.50E-10
 dcop: begin dcop,  cpu clock=  6.12E+00
 dcop: end dcop,  cpu clock=  6.13E+00 memory=    835 kb  tot_iter=     616
 output: f:\vlsiexp\exp3_tsetup\t_setup.mt0
 sweep: tran tran43   begin, stop_t=  3.00E-10 #sweeps=3001 cpu clock=  6.14E+00
 tran: time= 3.00000E-11 tot_iter=      49   conv_iter=      20
 tran: time= 6.10341E-11 tot_iter=     105   conv_iter=      41
 tran: time= 9.48495E-11 tot_iter=     119   conv_iter=      46
 tran: time= 1.33137E-10 tot_iter=     125   conv_iter=      49
 tran: time= 1.50420E-10 tot_iter=     129   conv_iter=      51
 tran: time= 1.80895E-10 tot_iter=     190   conv_iter=      73
 tran: time= 2.10034E-10 tot_iter=     253   conv_iter=      96
 tran: time= 2.41618E-10 tot_iter=     289   conv_iter=     108
 tran: time= 2.82989E-10 tot_iter=     301   conv_iter=     113
 tran: time= 3.00000E-10 tot_iter=     305   conv_iter=     115
 sweep: tran tran43   end,  cpu clock=  6.25E+00 memory=    836 kb
 parameter: datariseat      =    1.50E-10
 dcop: begin dcop,  cpu clock=  6.26E+00
 dcop: end dcop,  cpu clock=  6.26E+00 memory=    835 kb  tot_iter=     630
 output: f:\vlsiexp\exp3_tsetup\t_setup.mt0
 sweep: tran tran44   begin, stop_t=  3.00E-10 #sweeps=3001 cpu clock=  6.28E+00
 tran: time= 3.00000E-11 tot_iter=      49   conv_iter=      20
 tran: time= 6.10341E-11 tot_iter=     105   conv_iter=      41
 tran: time= 9.48495E-11 tot_iter=     119   conv_iter=      46
 tran: time= 1.33137E-10 tot_iter=     125   conv_iter=      49
 tran: time= 1.50430E-10 tot_iter=     129   conv_iter=      51
 tran: time= 1.80904E-10 tot_iter=     190   conv_iter=      73
 tran: time= 2.10050E-10 tot_iter=     253   conv_iter=      96
 tran: time= 2.41619E-10 tot_iter=     289   conv_iter=     108
 tran: time= 2.82993E-10 tot_iter=     301   conv_iter=     113
 tran: time= 3.00000E-10 tot_iter=     305   conv_iter=     115
 sweep: tran tran44   end,  cpu clock=  6.38E+00 memory=    836 kb
 parameter: datariseat      =    1.50E-10
 dcop: begin dcop,  cpu clock=  6.39E+00
 dcop: end dcop,  cpu clock=  6.40E+00 memory=    835 kb  tot_iter=     644
 output: f:\vlsiexp\exp3_tsetup\t_setup.mt0
 sweep: tran tran45   begin, stop_t=  3.00E-10 #sweeps=3001 cpu clock=  6.41E+00
 tran: time= 3.00000E-11 tot_iter=      49   conv_iter=      20
 tran: time= 6.10341E-11 tot_iter=     105   conv_iter=      41
 tran: time= 9.48495E-11 tot_iter=     119   conv_iter=      46
 tran: time= 1.33137E-10 tot_iter=     125   conv_iter=      49
 tran: time= 1.50440E-10 tot_iter=     129   conv_iter=      51
 tran: time= 1.80913E-10 tot_iter=     190   conv_iter=      73
 tran: time= 2.10066E-10 tot_iter=     253   conv_iter=      96
 tran: time= 2.41619E-10 tot_iter=     289   conv_iter=     108
 tran: time= 2.82992E-10 tot_iter=     301   conv_iter=     113
 tran: time= 3.00000E-10 tot_iter=     305   conv_iter=     115
 sweep: tran tran45   end,  cpu clock=  6.51E+00 memory=    836 kb
 parameter: datariseat      =    1.50E-10
 dcop: begin dcop,  cpu clock=  6.53E+00
 dcop: end dcop,  cpu clock=  6.53E+00 memory=    835 kb  tot_iter=     658
 output: f:\vlsiexp\exp3_tsetup\t_setup.mt0
 sweep: tran tran46   begin, stop_t=  3.00E-10 #sweeps=3001 cpu clock=  6.55E+00
 tran: time= 3.00000E-11 tot_iter=      49   conv_iter=      20
 tran: time= 6.10341E-11 tot_iter=     105   conv_iter=      41
 tran: time= 9.48495E-11 tot_iter=     119   conv_iter=      46
 tran: time= 1.33137E-10 tot_iter=     125   conv_iter=      49
 tran: time= 1.50450E-10 tot_iter=     129   conv_iter=      51
 tran: time= 1.80922E-10 tot_iter=     190   conv_iter=      73
 tran: time= 2.10082E-10 tot_iter=     253   conv_iter=      96
 tran: time= 2.41618E-10 tot_iter=     289   conv_iter=     108
 tran: time= 2.82987E-10 tot_iter=     301   conv_iter=     113
 tran: time= 3.00000E-10 tot_iter=     305   conv_iter=     115
 sweep: tran tran46   end,  cpu clock=  6.66E+00 memory=    836 kb
 parameter: datariseat      =    1.50E-10
 dcop: begin dcop,  cpu clock=  6.67E+00
 dcop: end dcop,  cpu clock=  6.68E+00 memory=    835 kb  tot_iter=     672
 output: f:\vlsiexp\exp3_tsetup\t_setup.mt0
 sweep: tran tran47   begin, stop_t=  3.00E-10 #sweeps=3001 cpu clock=  6.70E+00
 tran: time= 3.00000E-11 tot_iter=      49   conv_iter=      20
 tran: time= 6.10341E-11 tot_iter=     105   conv_iter=      41
 tran: time= 9.48495E-11 tot_iter=     119   conv_iter=      46
 tran: time= 1.33137E-10 tot_iter=     125   conv_iter=      49
 tran: time= 1.50460E-10 tot_iter=     129   conv_iter=      51
 tran: time= 1.80932E-10 tot_iter=     190   conv_iter=      73
 tran: time= 2.10099E-10 tot_iter=     253   conv_iter=      96
 tran: time= 2.41617E-10 tot_iter=     289   conv_iter=     108
 tran: time= 2.82978E-10 tot_iter=     301   conv_iter=     113
 tran: time= 3.00000E-10 tot_iter=     305   conv_iter=     115
 sweep: tran tran47   end,  cpu clock=  6.80E+00 memory=    836 kb
 parameter: datariseat      =    1.50E-10
 dcop: begin dcop,  cpu clock=  6.81E+00
 dcop: end dcop,  cpu clock=  6.82E+00 memory=    835 kb  tot_iter=     686
 output: f:\vlsiexp\exp3_tsetup\t_setup.mt0
 sweep: tran tran48   begin, stop_t=  3.00E-10 #sweeps=3001 cpu clock=  6.83E+00
 tran: time= 3.00000E-11 tot_iter=      49   conv_iter=      20
 tran: time= 6.10341E-11 tot_iter=     105   conv_iter=      41
 tran: time= 9.48495E-11 tot_iter=     119   conv_iter=      46
 tran: time= 1.33137E-10 tot_iter=     125   conv_iter=      49
 tran: time= 1.50470E-10 tot_iter=     129   conv_iter=      51
 tran: time= 1.80941E-10 tot_iter=     190   conv_iter=      73
 tran: time= 2.10115E-10 tot_iter=     253   conv_iter=      96
 tran: time= 2.41614E-10 tot_iter=     289   conv_iter=     108
 tran: time= 2.82964E-10 tot_iter=     301   conv_iter=     113
 tran: time= 3.00000E-10 tot_iter=     305   conv_iter=     115
 sweep: tran tran48   end,  cpu clock=  6.92E+00 memory=    836 kb
 parameter: datariseat      =    1.50E-10
 dcop: begin dcop,  cpu clock=  6.94E+00
 dcop: end dcop,  cpu clock=  6.95E+00 memory=    835 kb  tot_iter=     700
 output: f:\vlsiexp\exp3_tsetup\t_setup.mt0
 sweep: tran tran49   begin, stop_t=  3.00E-10 #sweeps=3001 cpu clock=  6.96E+00
 tran: time= 3.00000E-11 tot_iter=      49   conv_iter=      20
 tran: time= 6.10341E-11 tot_iter=     105   conv_iter=      41
 tran: time= 9.48495E-11 tot_iter=     119   conv_iter=      46
 tran: time= 1.33137E-10 tot_iter=     125   conv_iter=      49
 tran: time= 1.50480E-10 tot_iter=     129   conv_iter=      51
 tran: time= 1.80950E-10 tot_iter=     190   conv_iter=      73
 tran: time= 2.10131E-10 tot_iter=     253   conv_iter=      96
 tran: time= 2.41610E-10 tot_iter=     289   conv_iter=     108
 tran: time= 2.82947E-10 tot_iter=     301   conv_iter=     113
 tran: time= 3.00000E-10 tot_iter=     305   conv_iter=     115
 sweep: tran tran49   end,  cpu clock=  7.06E+00 memory=    836 kb
 parameter: datariseat      =    1.50E-10
 dcop: begin dcop,  cpu clock=  7.07E+00
 dcop: end dcop,  cpu clock=  7.08E+00 memory=    835 kb  tot_iter=     714
 output: f:\vlsiexp\exp3_tsetup\t_setup.mt0
 sweep: tran tran50   begin, stop_t=  3.00E-10 #sweeps=3001 cpu clock=  7.10E+00
 tran: time= 3.00000E-11 tot_iter=      49   conv_iter=      20
 tran: time= 6.10341E-11 tot_iter=     105   conv_iter=      41
 tran: time= 9.48495E-11 tot_iter=     119   conv_iter=      46
 tran: time= 1.33137E-10 tot_iter=     125   conv_iter=      49
 tran: time= 1.50490E-10 tot_iter=     129   conv_iter=      51
 tran: time= 1.80959E-10 tot_iter=     190   conv_iter=      73
 tran: time= 2.10148E-10 tot_iter=     253   conv_iter=      96
 tran: time= 2.41606E-10 tot_iter=     289   conv_iter=     108
 tran: time= 2.82925E-10 tot_iter=     301   conv_iter=     113
 tran: time= 3.00000E-10 tot_iter=     305   conv_iter=     115
 sweep: tran tran50   end,  cpu clock=  7.20E+00 memory=    836 kb
 parameter: datariseat      =    1.50E-10
 dcop: begin dcop,  cpu clock=  7.21E+00
 dcop: end dcop,  cpu clock=  7.22E+00 memory=    835 kb  tot_iter=     728
 output: f:\vlsiexp\exp3_tsetup\t_setup.mt0
 sweep: tran tran51   begin, stop_t=  3.00E-10 #sweeps=3001 cpu clock=  7.23E+00
 tran: time= 3.00000E-11 tot_iter=      49   conv_iter=      20
 tran: time= 6.10341E-11 tot_iter=     105   conv_iter=      41
 tran: time= 9.48495E-11 tot_iter=     119   conv_iter=      46
 tran: time= 1.33137E-10 tot_iter=     125   conv_iter=      49
 tran: time= 1.50500E-10 tot_iter=     129   conv_iter=      51
 tran: time= 1.80969E-10 tot_iter=     190   conv_iter=      73
 tran: time= 2.10160E-10 tot_iter=     253   conv_iter=      96
 tran: time= 2.41602E-10 tot_iter=     289   conv_iter=     108
 tran: time= 2.82907E-10 tot_iter=     301   conv_iter=     113
 tran: time= 3.00000E-10 tot_iter=     305   conv_iter=     115
 sweep: tran tran51   end,  cpu clock=  7.33E+00 memory=    836 kb
 parameter: datariseat      =    1.51E-10
 dcop: begin dcop,  cpu clock=  7.34E+00
 dcop: end dcop,  cpu clock=  7.35E+00 memory=    835 kb  tot_iter=     742
 output: f:\vlsiexp\exp3_tsetup\t_setup.mt0
 sweep: tran tran52   begin, stop_t=  3.00E-10 #sweeps=3001 cpu clock=  7.36E+00
 tran: time= 3.00000E-11 tot_iter=      49   conv_iter=      20
 tran: time= 6.10341E-11 tot_iter=     105   conv_iter=      41
 tran: time= 9.48495E-11 tot_iter=     119   conv_iter=      46
 tran: time= 1.33137E-10 tot_iter=     125   conv_iter=      49
 tran: time= 1.50510E-10 tot_iter=     129   conv_iter=      51
 tran: time= 1.80978E-10 tot_iter=     190   conv_iter=      73
 tran: time= 2.10170E-10 tot_iter=     253   conv_iter=      96
 tran: time= 2.41599E-10 tot_iter=     289   conv_iter=     108
 tran: time= 2.82895E-10 tot_iter=     301   conv_iter=     113
 tran: time= 3.00000E-10 tot_iter=     305   conv_iter=     115
 sweep: tran tran52   end,  cpu clock=  7.45E+00 memory=    836 kb
 parameter: datariseat      =    1.51E-10
 dcop: begin dcop,  cpu clock=  7.46E+00
 dcop: end dcop,  cpu clock=  7.47E+00 memory=    835 kb  tot_iter=     756
 output: f:\vlsiexp\exp3_tsetup\t_setup.mt0
 sweep: tran tran53   begin, stop_t=  3.00E-10 #sweeps=3001 cpu clock=  7.48E+00
 tran: time= 3.00000E-11 tot_iter=      49   conv_iter=      20
 tran: time= 6.10341E-11 tot_iter=     105   conv_iter=      41
 tran: time= 9.48495E-11 tot_iter=     119   conv_iter=      46
 tran: time= 1.33137E-10 tot_iter=     125   conv_iter=      49
 tran: time= 1.50520E-10 tot_iter=     129   conv_iter=      51
 tran: time= 1.80987E-10 tot_iter=     190   conv_iter=      73
 tran: time= 2.10179E-10 tot_iter=     253   conv_iter=      96
 tran: time= 2.41597E-10 tot_iter=     289   conv_iter=     108
 tran: time= 2.82881E-10 tot_iter=     301   conv_iter=     113
 tran: time= 3.00000E-10 tot_iter=     305   conv_iter=     115
 sweep: tran tran53   end,  cpu clock=  7.58E+00 memory=    836 kb
 parameter: datariseat      =    1.51E-10
 dcop: begin dcop,  cpu clock=  7.59E+00
 dcop: end dcop,  cpu clock=  7.60E+00 memory=    835 kb  tot_iter=     770
 output: f:\vlsiexp\exp3_tsetup\t_setup.mt0
 sweep: tran tran54   begin, stop_t=  3.00E-10 #sweeps=3001 cpu clock=  7.62E+00
 tran: time= 3.00000E-11 tot_iter=      49   conv_iter=      20
 tran: time= 6.10341E-11 tot_iter=     105   conv_iter=      41
 tran: time= 9.48495E-11 tot_iter=     119   conv_iter=      46
 tran: time= 1.33137E-10 tot_iter=     125   conv_iter=      49
 tran: time= 1.50530E-10 tot_iter=     129   conv_iter=      51
 tran: time= 1.80996E-10 tot_iter=     190   conv_iter=      73
 tran: time= 2.10188E-10 tot_iter=     253   conv_iter=      96
 tran: time= 2.41594E-10 tot_iter=     289   conv_iter=     108
 tran: time= 2.82862E-10 tot_iter=     301   conv_iter=     113
 tran: time= 3.00000E-10 tot_iter=     305   conv_iter=     115
 sweep: tran tran54   end,  cpu clock=  7.71E+00 memory=    836 kb
 parameter: datariseat      =    1.51E-10
 dcop: begin dcop,  cpu clock=  7.72E+00
 dcop: end dcop,  cpu clock=  7.73E+00 memory=    835 kb  tot_iter=     784
 output: f:\vlsiexp\exp3_tsetup\t_setup.mt0
 sweep: tran tran55   begin, stop_t=  3.00E-10 #sweeps=3001 cpu clock=  7.75E+00
 tran: time= 3.00000E-11 tot_iter=      49   conv_iter=      20
 tran: time= 6.10341E-11 tot_iter=     105   conv_iter=      41
 tran: time= 9.48495E-11 tot_iter=     119   conv_iter=      46
 tran: time= 1.33137E-10 tot_iter=     125   conv_iter=      49
 tran: time= 1.50540E-10 tot_iter=     129   conv_iter=      51
 tran: time= 1.81006E-10 tot_iter=     190   conv_iter=      73
 tran: time= 2.10197E-10 tot_iter=     253   conv_iter=      96
 tran: time= 2.41591E-10 tot_iter=     289   conv_iter=     108
 tran: time= 2.82840E-10 tot_iter=     301   conv_iter=     113
 tran: time= 3.00000E-10 tot_iter=     305   conv_iter=     115
 sweep: tran tran55   end,  cpu clock=  7.85E+00 memory=    836 kb
 parameter: datariseat      =    1.51E-10
 dcop: begin dcop,  cpu clock=  7.86E+00
 dcop: end dcop,  cpu clock=  7.87E+00 memory=    835 kb  tot_iter=     798
 output: f:\vlsiexp\exp3_tsetup\t_setup.mt0
 sweep: tran tran56   begin, stop_t=  3.00E-10 #sweeps=3001 cpu clock=  7.88E+00
 tran: time= 3.00000E-11 tot_iter=      49   conv_iter=      20
 tran: time= 6.10341E-11 tot_iter=     105   conv_iter=      41
 tran: time= 9.48495E-11 tot_iter=     119   conv_iter=      46
 tran: time= 1.33137E-10 tot_iter=     125   conv_iter=      49
 tran: time= 1.50550E-10 tot_iter=     129   conv_iter=      51
 tran: time= 1.81015E-10 tot_iter=     190   conv_iter=      73
 tran: time= 2.10206E-10 tot_iter=     253   conv_iter=      96
 tran: time= 2.41587E-10 tot_iter=     289   conv_iter=     108
 tran: time= 2.82817E-10 tot_iter=     301   conv_iter=     113
 tran: time= 3.00000E-10 tot_iter=     305   conv_iter=     115
 sweep: tran tran56   end,  cpu clock=  7.98E+00 memory=    836 kb
 parameter: datariseat      =    1.51E-10
 dcop: begin dcop,  cpu clock=  7.99E+00
 dcop: end dcop,  cpu clock=  8.00E+00 memory=    835 kb  tot_iter=     812
 output: f:\vlsiexp\exp3_tsetup\t_setup.mt0
 sweep: tran tran57   begin, stop_t=  3.00E-10 #sweeps=3001 cpu clock=  8.02E+00
 tran: time= 3.00000E-11 tot_iter=      49   conv_iter=      20
 tran: time= 6.10341E-11 tot_iter=     105   conv_iter=      41
 tran: time= 9.48495E-11 tot_iter=     119   conv_iter=      46
 tran: time= 1.33137E-10 tot_iter=     125   conv_iter=      49
 tran: time= 1.50560E-10 tot_iter=     129   conv_iter=      51
 tran: time= 1.81024E-10 tot_iter=     190   conv_iter=      73
 tran: time= 2.10217E-10 tot_iter=     253   conv_iter=      96
 tran: time= 2.41582E-10 tot_iter=     289   conv_iter=     108
 tran: time= 2.82786E-10 tot_iter=     301   conv_iter=     113
 tran: time= 3.00000E-10 tot_iter=     305   conv_iter=     115
 sweep: tran tran57   end,  cpu clock=  8.12E+00 memory=    836 kb
 parameter: datariseat      =    1.51E-10
 dcop: begin dcop,  cpu clock=  8.13E+00
 dcop: end dcop,  cpu clock=  8.14E+00 memory=    835 kb  tot_iter=     826
 output: f:\vlsiexp\exp3_tsetup\t_setup.mt0
 sweep: tran tran58   begin, stop_t=  3.00E-10 #sweeps=3001 cpu clock=  8.15E+00
 tran: time= 3.00000E-11 tot_iter=      49   conv_iter=      20
 tran: time= 6.10341E-11 tot_iter=     105   conv_iter=      41
 tran: time= 9.48495E-11 tot_iter=     119   conv_iter=      46
 tran: time= 1.33137E-10 tot_iter=     125   conv_iter=      49
 tran: time= 1.50570E-10 tot_iter=     129   conv_iter=      51
 tran: time= 1.81034E-10 tot_iter=     190   conv_iter=      73
 tran: time= 2.10233E-10 tot_iter=     253   conv_iter=      96
 tran: time= 2.41575E-10 tot_iter=     289   conv_iter=     108
 tran: time= 2.82737E-10 tot_iter=     301   conv_iter=     113
 tran: time= 3.00000E-10 tot_iter=     305   conv_iter=     115
 sweep: tran tran58   end,  cpu clock=  8.25E+00 memory=    836 kb
 parameter: datariseat      =    1.51E-10
 dcop: begin dcop,  cpu clock=  8.27E+00
 dcop: end dcop,  cpu clock=  8.28E+00 memory=    835 kb  tot_iter=     840
 output: f:\vlsiexp\exp3_tsetup\t_setup.mt0
 sweep: tran tran59   begin, stop_t=  3.00E-10 #sweeps=3001 cpu clock=  8.29E+00
 tran: time= 3.00000E-11 tot_iter=      49   conv_iter=      20
 tran: time= 6.10341E-11 tot_iter=     105   conv_iter=      41
 tran: time= 9.48495E-11 tot_iter=     119   conv_iter=      46
 tran: time= 1.33137E-10 tot_iter=     125   conv_iter=      49
 tran: time= 1.50580E-10 tot_iter=     129   conv_iter=      51
 tran: time= 1.81043E-10 tot_iter=     190   conv_iter=      73
 tran: time= 2.10249E-10 tot_iter=     253   conv_iter=      96
 tran: time= 2.41567E-10 tot_iter=     289   conv_iter=     108
 tran: time= 2.82685E-10 tot_iter=     301   conv_iter=     113
 tran: time= 3.00000E-10 tot_iter=     305   conv_iter=     115
 sweep: tran tran59   end,  cpu clock=  8.39E+00 memory=    836 kb
 parameter: datariseat      =    1.51E-10
 dcop: begin dcop,  cpu clock=  8.40E+00
 dcop: end dcop,  cpu clock=  8.41E+00 memory=    835 kb  tot_iter=     854
 output: f:\vlsiexp\exp3_tsetup\t_setup.mt0
 sweep: tran tran60   begin, stop_t=  3.00E-10 #sweeps=3001 cpu clock=  8.43E+00
 tran: time= 3.00000E-11 tot_iter=      49   conv_iter=      20
 tran: time= 6.10341E-11 tot_iter=     105   conv_iter=      41
 tran: time= 9.48495E-11 tot_iter=     119   conv_iter=      46
 tran: time= 1.33137E-10 tot_iter=     125   conv_iter=      49
 tran: time= 1.50590E-10 tot_iter=     129   conv_iter=      51
 tran: time= 1.81052E-10 tot_iter=     190   conv_iter=      73
 tran: time= 2.10264E-10 tot_iter=     253   conv_iter=      96
 tran: time= 2.41558E-10 tot_iter=     289   conv_iter=     108
 tran: time= 2.82630E-10 tot_iter=     301   conv_iter=     113
 tran: time= 3.00000E-10 tot_iter=     305   conv_iter=     115
 sweep: tran tran60   end,  cpu clock=  8.52E+00 memory=    836 kb
 parameter: datariseat      =    1.51E-10
 dcop: begin dcop,  cpu clock=  8.54E+00
 dcop: end dcop,  cpu clock=  8.54E+00 memory=    835 kb  tot_iter=     868
 output: f:\vlsiexp\exp3_tsetup\t_setup.mt0
 sweep: tran tran61   begin, stop_t=  3.00E-10 #sweeps=3001 cpu clock=  8.56E+00
 tran: time= 3.00000E-11 tot_iter=      49   conv_iter=      20
 tran: time= 6.10341E-11 tot_iter=     105   conv_iter=      41
 tran: time= 9.48495E-11 tot_iter=     119   conv_iter=      46
 tran: time= 1.33137E-10 tot_iter=     125   conv_iter=      49
 tran: time= 1.50600E-10 tot_iter=     129   conv_iter=      51
 tran: time= 1.81062E-10 tot_iter=     190   conv_iter=      73
 tran: time= 2.10280E-10 tot_iter=     253   conv_iter=      96
 tran: time= 2.41548E-10 tot_iter=     289   conv_iter=     108
 tran: time= 2.82572E-10 tot_iter=     301   conv_iter=     113
 tran: time= 3.00000E-10 tot_iter=     305   conv_iter=     115
 sweep: tran tran61   end,  cpu clock=  8.66E+00 memory=    836 kb
 parameter: datariseat      =    1.51E-10
 dcop: begin dcop,  cpu clock=  8.67E+00
 dcop: end dcop,  cpu clock=  8.68E+00 memory=    835 kb  tot_iter=     882
 output: f:\vlsiexp\exp3_tsetup\t_setup.mt0
 sweep: tran tran62   begin, stop_t=  3.00E-10 #sweeps=3001 cpu clock=  8.69E+00
 tran: time= 3.00000E-11 tot_iter=      49   conv_iter=      20
 tran: time= 6.10341E-11 tot_iter=     105   conv_iter=      41
 tran: time= 9.48495E-11 tot_iter=     119   conv_iter=      46
 tran: time= 1.33137E-10 tot_iter=     125   conv_iter=      49
 tran: time= 1.50610E-10 tot_iter=     129   conv_iter=      51
 tran: time= 1.81071E-10 tot_iter=     190   conv_iter=      73
 tran: time= 2.10321E-10 tot_iter=     254   conv_iter=      96
 tran: time= 2.41521E-10 tot_iter=     290   conv_iter=     108
 tran: time= 2.82413E-10 tot_iter=     302   conv_iter=     113
 tran: time= 3.00000E-10 tot_iter=     306   conv_iter=     115
 sweep: tran tran62   end,  cpu clock=  8.79E+00 memory=    836 kb
 parameter: datariseat      =    1.51E-10
 dcop: begin dcop,  cpu clock=  8.81E+00
 dcop: end dcop,  cpu clock=  8.81E+00 memory=    835 kb  tot_iter=     896
 output: f:\vlsiexp\exp3_tsetup\t_setup.mt0
 sweep: tran tran63   begin, stop_t=  3.00E-10 #sweeps=3001 cpu clock=  8.83E+00
 tran: time= 3.00000E-11 tot_iter=      49   conv_iter=      20
 tran: time= 6.10341E-11 tot_iter=     105   conv_iter=      41
 tran: time= 9.48495E-11 tot_iter=     119   conv_iter=      46
 tran: time= 1.33137E-10 tot_iter=     125   conv_iter=      49
 tran: time= 1.50620E-10 tot_iter=     129   conv_iter=      51
 tran: time= 1.81081E-10 tot_iter=     190   conv_iter=      73
 tran: time= 2.10337E-10 tot_iter=     254   conv_iter=      96
 tran: time= 2.41510E-10 tot_iter=     290   conv_iter=     108
 tran: time= 2.82347E-10 tot_iter=     302   conv_iter=     113
 tran: time= 3.00000E-10 tot_iter=     306   conv_iter=     115
 sweep: tran tran63   end,  cpu clock=  8.92E+00 memory=    836 kb
 parameter: datariseat      =    1.51E-10
 dcop: begin dcop,  cpu clock=  8.93E+00
 dcop: end dcop,  cpu clock=  8.94E+00 memory=    835 kb  tot_iter=     910
 output: f:\vlsiexp\exp3_tsetup\t_setup.mt0
 sweep: tran tran64   begin, stop_t=  3.00E-10 #sweeps=3001 cpu clock=  8.96E+00
 tran: time= 3.00000E-11 tot_iter=      49   conv_iter=      20
 tran: time= 6.10341E-11 tot_iter=     105   conv_iter=      41
 tran: time= 9.48495E-11 tot_iter=     119   conv_iter=      46
 tran: time= 1.33137E-10 tot_iter=     125   conv_iter=      49
 tran: time= 1.50630E-10 tot_iter=     129   conv_iter=      51
 tran: time= 1.81090E-10 tot_iter=     190   conv_iter=      73
 tran: time= 2.10354E-10 tot_iter=     254   conv_iter=      96
 tran: time= 2.41498E-10 tot_iter=     290   conv_iter=     108
 tran: time= 2.82278E-10 tot_iter=     302   conv_iter=     113
 tran: time= 3.00000E-10 tot_iter=     306   conv_iter=     115
 sweep: tran tran64   end,  cpu clock=  9.05E+00 memory=    836 kb
 parameter: datariseat      =    1.51E-10
 dcop: begin dcop,  cpu clock=  9.06E+00
 dcop: end dcop,  cpu clock=  9.07E+00 memory=    835 kb  tot_iter=     924
 output: f:\vlsiexp\exp3_tsetup\t_setup.mt0
 sweep: tran tran65   begin, stop_t=  3.00E-10 #sweeps=3001 cpu clock=  9.08E+00
 tran: time= 3.00000E-11 tot_iter=      49   conv_iter=      20
 tran: time= 6.10341E-11 tot_iter=     105   conv_iter=      41
 tran: time= 9.48495E-11 tot_iter=     119   conv_iter=      46
 tran: time= 1.33137E-10 tot_iter=     125   conv_iter=      49
 tran: time= 1.50640E-10 tot_iter=     129   conv_iter=      51
 tran: time= 1.81099E-10 tot_iter=     190   conv_iter=      73
 tran: time= 2.10372E-10 tot_iter=     254   conv_iter=      96
 tran: time= 2.41485E-10 tot_iter=     290   conv_iter=     108
 tran: time= 2.82206E-10 tot_iter=     302   conv_iter=     113
 tran: time= 3.00000E-10 tot_iter=     306   conv_iter=     115
 sweep: tran tran65   end,  cpu clock=  9.18E+00 memory=    836 kb
 parameter: datariseat      =    1.51E-10
 dcop: begin dcop,  cpu clock=  9.19E+00
 dcop: end dcop,  cpu clock=  9.19E+00 memory=    835 kb  tot_iter=     938
 output: f:\vlsiexp\exp3_tsetup\t_setup.mt0
 sweep: tran tran66   begin, stop_t=  3.00E-10 #sweeps=3001 cpu clock=  9.21E+00
 tran: time= 3.00000E-11 tot_iter=      49   conv_iter=      20
 tran: time= 6.10341E-11 tot_iter=     105   conv_iter=      41
 tran: time= 9.48495E-11 tot_iter=     119   conv_iter=      46
 tran: time= 1.33137E-10 tot_iter=     125   conv_iter=      49
 tran: time= 1.50650E-10 tot_iter=     129   conv_iter=      51
 tran: time= 1.81109E-10 tot_iter=     190   conv_iter=      73
 tran: time= 2.10389E-10 tot_iter=     254   conv_iter=      96
 tran: time= 2.41472E-10 tot_iter=     290   conv_iter=     108
 tran: time= 2.82132E-10 tot_iter=     302   conv_iter=     113
 tran: time= 3.00000E-10 tot_iter=     306   conv_iter=     115
 sweep: tran tran66   end,  cpu clock=  9.30E+00 memory=    836 kb
 parameter: datariseat      =    1.51E-10
 dcop: begin dcop,  cpu clock=  9.31E+00
 dcop: end dcop,  cpu clock=  9.31E+00 memory=    835 kb  tot_iter=     952
 output: f:\vlsiexp\exp3_tsetup\t_setup.mt0
 sweep: tran tran67   begin, stop_t=  3.00E-10 #sweeps=3001 cpu clock=  9.33E+00
 tran: time= 3.00000E-11 tot_iter=      49   conv_iter=      20
 tran: time= 6.10341E-11 tot_iter=     105   conv_iter=      41
 tran: time= 9.48495E-11 tot_iter=     119   conv_iter=      46
 tran: time= 1.33137E-10 tot_iter=     125   conv_iter=      49
 tran: time= 1.50660E-10 tot_iter=     129   conv_iter=      51
 tran: time= 1.81118E-10 tot_iter=     190   conv_iter=      73
 tran: time= 2.10407E-10 tot_iter=     254   conv_iter=      96
 tran: time= 2.41459E-10 tot_iter=     290   conv_iter=     108
 tran: time= 2.82055E-10 tot_iter=     302   conv_iter=     113
 tran: time= 3.00000E-10 tot_iter=     306   conv_iter=     115
 sweep: tran tran67   end,  cpu clock=  9.41E+00 memory=    836 kb
 parameter: datariseat      =    1.51E-10
 dcop: begin dcop,  cpu clock=  9.42E+00
 dcop: end dcop,  cpu clock=  9.43E+00 memory=    835 kb  tot_iter=     966
 output: f:\vlsiexp\exp3_tsetup\t_setup.mt0
 sweep: tran tran68   begin, stop_t=  3.00E-10 #sweeps=3001 cpu clock=  9.44E+00
 tran: time= 3.00000E-11 tot_iter=      49   conv_iter=      20
 tran: time= 6.10341E-11 tot_iter=     105   conv_iter=      41
 tran: time= 9.48495E-11 tot_iter=     119   conv_iter=      46
 tran: time= 1.33137E-10 tot_iter=     125   conv_iter=      49
 tran: time= 1.50670E-10 tot_iter=     129   conv_iter=      51
 tran: time= 1.81128E-10 tot_iter=     190   conv_iter=      73
 tran: time= 2.10425E-10 tot_iter=     254   conv_iter=      96
 tran: time= 2.41446E-10 tot_iter=     290   conv_iter=     108
 tran: time= 2.81978E-10 tot_iter=     302   conv_iter=     113
 tran: time= 3.00000E-10 tot_iter=     306   conv_iter=     115
 sweep: tran tran68   end,  cpu clock=  9.53E+00 memory=    836 kb
 parameter: datariseat      =    1.51E-10
 dcop: begin dcop,  cpu clock=  9.55E+00
 dcop: end dcop,  cpu clock=  9.55E+00 memory=    835 kb  tot_iter=     980
 output: f:\vlsiexp\exp3_tsetup\t_setup.mt0
 sweep: tran tran69   begin, stop_t=  3.00E-10 #sweeps=3001 cpu clock=  9.57E+00
 tran: time= 3.00000E-11 tot_iter=      49   conv_iter=      20
 tran: time= 6.10341E-11 tot_iter=     105   conv_iter=      41
 tran: time= 9.48495E-11 tot_iter=     119   conv_iter=      46
 tran: time= 1.33137E-10 tot_iter=     125   conv_iter=      49
 tran: time= 1.50680E-10 tot_iter=     129   conv_iter=      51
 tran: time= 1.81137E-10 tot_iter=     190   conv_iter=      73
 tran: time= 2.10443E-10 tot_iter=     254   conv_iter=      96
 tran: time= 2.41436E-10 tot_iter=     290   conv_iter=     108
 tran: time= 2.81903E-10 tot_iter=     302   conv_iter=     113
 tran: time= 3.00000E-10 tot_iter=     306   conv_iter=     115
 sweep: tran tran69   end,  cpu clock=  9.66E+00 memory=    836 kb
 parameter: datariseat      =    1.51E-10
 dcop: begin dcop,  cpu clock=  9.68E+00
 dcop: end dcop,  cpu clock=  9.68E+00 memory=    835 kb  tot_iter=     994
 output: f:\vlsiexp\exp3_tsetup\t_setup.mt0
 sweep: tran tran70   begin, stop_t=  3.00E-10 #sweeps=3001 cpu clock=  9.70E+00
 tran: time= 3.00000E-11 tot_iter=      49   conv_iter=      20
 tran: time= 6.10341E-11 tot_iter=     105   conv_iter=      41
 tran: time= 9.48495E-11 tot_iter=     119   conv_iter=      46
 tran: time= 1.33137E-10 tot_iter=     125   conv_iter=      49
 tran: time= 1.50690E-10 tot_iter=     129   conv_iter=      51
 tran: time= 1.81147E-10 tot_iter=     190   conv_iter=      73
 tran: time= 2.10462E-10 tot_iter=     254   conv_iter=      96
 tran: time= 2.41422E-10 tot_iter=     290   conv_iter=     108
 tran: time= 2.81825E-10 tot_iter=     302   conv_iter=     113
 tran: time= 3.00000E-10 tot_iter=     306   conv_iter=     115
 sweep: tran tran70   end,  cpu clock=  9.79E+00 memory=    836 kb
 parameter: datariseat      =    1.51E-10
 dcop: begin dcop,  cpu clock=  9.80E+00
 dcop: end dcop,  cpu clock=  9.81E+00 memory=    835 kb  tot_iter=    1008
 output: f:\vlsiexp\exp3_tsetup\t_setup.mt0
 sweep: tran tran71   begin, stop_t=  3.00E-10 #sweeps=3001 cpu clock=  9.82E+00
 tran: time= 3.00000E-11 tot_iter=      49   conv_iter=      20
 tran: time= 6.10341E-11 tot_iter=     105   conv_iter=      41
 tran: time= 9.48495E-11 tot_iter=     119   conv_iter=      46
 tran: time= 1.33137E-10 tot_iter=     125   conv_iter=      49
 tran: time= 1.50700E-10 tot_iter=     129   conv_iter=      51
 tran: time= 1.81156E-10 tot_iter=     190   conv_iter=      73
 tran: time= 2.10481E-10 tot_iter=     254   conv_iter=      96
 tran: time= 2.41409E-10 tot_iter=     290   conv_iter=     108
 tran: time= 2.81747E-10 tot_iter=     302   conv_iter=     113
 tran: time= 3.00000E-10 tot_iter=     306   conv_iter=     115
 sweep: tran tran71   end,  cpu clock=  9.91E+00 memory=    836 kb
 parameter: datariseat      =    1.51E-10
 dcop: begin dcop,  cpu clock=  9.93E+00
 dcop: end dcop,  cpu clock=  9.94E+00 memory=    835 kb  tot_iter=    1022
 output: f:\vlsiexp\exp3_tsetup\t_setup.mt0
 sweep: tran tran72   begin, stop_t=  3.00E-10 #sweeps=3001 cpu clock=  9.95E+00
 tran: time= 3.00000E-11 tot_iter=      49   conv_iter=      20
 tran: time= 6.10341E-11 tot_iter=     105   conv_iter=      41
 tran: time= 9.48495E-11 tot_iter=     119   conv_iter=      46
 tran: time= 1.33137E-10 tot_iter=     125   conv_iter=      49
 tran: time= 1.50710E-10 tot_iter=     129   conv_iter=      51
 tran: time= 1.81166E-10 tot_iter=     190   conv_iter=      73
 tran: time= 2.10500E-10 tot_iter=     254   conv_iter=      96
 tran: time= 2.41396E-10 tot_iter=     290   conv_iter=     108
 tran: time= 2.81669E-10 tot_iter=     302   conv_iter=     113
 tran: time= 3.00000E-10 tot_iter=     306   conv_iter=     115
 sweep: tran tran72   end,  cpu clock=  1.00E+01 memory=    836 kb
 parameter: datariseat      =    1.51E-10
 dcop: begin dcop,  cpu clock=  1.01E+01
 dcop: end dcop,  cpu clock=  1.01E+01 memory=    835 kb  tot_iter=    1036
 output: f:\vlsiexp\exp3_tsetup\t_setup.mt0
 sweep: tran tran73   begin, stop_t=  3.00E-10 #sweeps=3001 cpu clock=  1.01E+01
 tran: time= 3.00000E-11 tot_iter=      49   conv_iter=      20
 tran: time= 6.10341E-11 tot_iter=     105   conv_iter=      41
 tran: time= 9.48495E-11 tot_iter=     119   conv_iter=      46
 tran: time= 1.33137E-10 tot_iter=     125   conv_iter=      49
 tran: time= 1.50720E-10 tot_iter=     129   conv_iter=      51
 tran: time= 1.81175E-10 tot_iter=     190   conv_iter=      73
 tran: time= 2.10519E-10 tot_iter=     254   conv_iter=      96
 tran: time= 2.41383E-10 tot_iter=     290   conv_iter=     108
 tran: time= 2.81590E-10 tot_iter=     302   conv_iter=     113
 tran: time= 3.00000E-10 tot_iter=     306   conv_iter=     115
 sweep: tran tran73   end,  cpu clock=  1.02E+01 memory=    836 kb
 parameter: datariseat      =    1.51E-10
 dcop: begin dcop,  cpu clock=  1.02E+01
 dcop: end dcop,  cpu clock=  1.02E+01 memory=    835 kb  tot_iter=    1050
 output: f:\vlsiexp\exp3_tsetup\t_setup.mt0
 sweep: tran tran74   begin, stop_t=  3.00E-10 #sweeps=3001 cpu clock=  1.02E+01
 tran: time= 3.00000E-11 tot_iter=      49   conv_iter=      20
 tran: time= 6.10341E-11 tot_iter=     105   conv_iter=      41
 tran: time= 9.48495E-11 tot_iter=     119   conv_iter=      46
 tran: time= 1.33137E-10 tot_iter=     125   conv_iter=      49
 tran: time= 1.50730E-10 tot_iter=     129   conv_iter=      51
 tran: time= 1.81184E-10 tot_iter=     190   conv_iter=      73
 tran: time= 2.10536E-10 tot_iter=     254   conv_iter=      96
 tran: time= 2.41372E-10 tot_iter=     290   conv_iter=     108
 tran: time= 2.81526E-10 tot_iter=     302   conv_iter=     113
 tran: time= 3.00000E-10 tot_iter=     306   conv_iter=     115
 sweep: tran tran74   end,  cpu clock=  1.03E+01 memory=    836 kb
 parameter: datariseat      =    1.51E-10
 dcop: begin dcop,  cpu clock=  1.03E+01
 dcop: end dcop,  cpu clock=  1.03E+01 memory=    835 kb  tot_iter=    1064
 output: f:\vlsiexp\exp3_tsetup\t_setup.mt0
 sweep: tran tran75   begin, stop_t=  3.00E-10 #sweeps=3001 cpu clock=  1.03E+01
 tran: time= 3.00000E-11 tot_iter=      49   conv_iter=      20
 tran: time= 6.10341E-11 tot_iter=     105   conv_iter=      41
 tran: time= 9.48495E-11 tot_iter=     119   conv_iter=      46
 tran: time= 1.33137E-10 tot_iter=     125   conv_iter=      49
 tran: time= 1.50740E-10 tot_iter=     129   conv_iter=      51
 tran: time= 1.81194E-10 tot_iter=     190   conv_iter=      73
 tran: time= 2.10538E-10 tot_iter=     254   conv_iter=      96
 tran: time= 2.41376E-10 tot_iter=     290   conv_iter=     108
 tran: time= 2.81536E-10 tot_iter=     302   conv_iter=     113
 tran: time= 3.00000E-10 tot_iter=     306   conv_iter=     115
 sweep: tran tran75   end,  cpu clock=  1.04E+01 memory=    836 kb
 parameter: datariseat      =    1.51E-10
 dcop: begin dcop,  cpu clock=  1.04E+01
 dcop: end dcop,  cpu clock=  1.04E+01 memory=    835 kb  tot_iter=    1078
 output: f:\vlsiexp\exp3_tsetup\t_setup.mt0
 sweep: tran tran76   begin, stop_t=  3.00E-10 #sweeps=3001 cpu clock=  1.04E+01
 tran: time= 3.00000E-11 tot_iter=      49   conv_iter=      20
 tran: time= 6.10341E-11 tot_iter=     105   conv_iter=      41
 tran: time= 9.48495E-11 tot_iter=     119   conv_iter=      46
 tran: time= 1.33137E-10 tot_iter=     125   conv_iter=      49
 tran: time= 1.50750E-10 tot_iter=     129   conv_iter=      51
 tran: time= 1.81204E-10 tot_iter=     190   conv_iter=      73
 tran: time= 2.10540E-10 tot_iter=     254   conv_iter=      96
 tran: time= 2.41379E-10 tot_iter=     290   conv_iter=     108
 tran: time= 2.81544E-10 tot_iter=     302   conv_iter=     113
 tran: time= 3.00000E-10 tot_iter=     306   conv_iter=     115
 sweep: tran tran76   end,  cpu clock=  1.05E+01 memory=    836 kb
 parameter: datariseat      =    1.51E-10
 dcop: begin dcop,  cpu clock=  1.05E+01
 dcop: end dcop,  cpu clock=  1.05E+01 memory=    835 kb  tot_iter=    1092
 output: f:\vlsiexp\exp3_tsetup\t_setup.mt0
 sweep: tran tran77   begin, stop_t=  3.00E-10 #sweeps=3001 cpu clock=  1.06E+01
 tran: time= 3.00000E-11 tot_iter=      49   conv_iter=      20
 tran: time= 6.10341E-11 tot_iter=     105   conv_iter=      41
 tran: time= 9.48495E-11 tot_iter=     119   conv_iter=      46
 tran: time= 1.33137E-10 tot_iter=     125   conv_iter=      49
 tran: time= 1.50760E-10 tot_iter=     129   conv_iter=      51
 tran: time= 1.81213E-10 tot_iter=     190   conv_iter=      73
 tran: time= 2.10542E-10 tot_iter=     254   conv_iter=      96
 tran: time= 2.41383E-10 tot_iter=     290   conv_iter=     108
 tran: time= 2.81553E-10 tot_iter=     302   conv_iter=     113
 tran: time= 3.00000E-10 tot_iter=     306   conv_iter=     115
 sweep: tran tran77   end,  cpu clock=  1.06E+01 memory=    836 kb
 parameter: datariseat      =    1.51E-10
 dcop: begin dcop,  cpu clock=  1.07E+01
 dcop: end dcop,  cpu clock=  1.07E+01 memory=    835 kb  tot_iter=    1106
 output: f:\vlsiexp\exp3_tsetup\t_setup.mt0
 sweep: tran tran78   begin, stop_t=  3.00E-10 #sweeps=3001 cpu clock=  1.07E+01
 tran: time= 3.00000E-11 tot_iter=      49   conv_iter=      20
 tran: time= 6.10341E-11 tot_iter=     105   conv_iter=      41
 tran: time= 9.48495E-11 tot_iter=     119   conv_iter=      46
 tran: time= 1.33137E-10 tot_iter=     125   conv_iter=      49
 tran: time= 1.50770E-10 tot_iter=     129   conv_iter=      51
 tran: time= 1.81223E-10 tot_iter=     190   conv_iter=      73
 tran: time= 2.10543E-10 tot_iter=     254   conv_iter=      96
 tran: time= 2.41386E-10 tot_iter=     290   conv_iter=     108
 tran: time= 2.81561E-10 tot_iter=     302   conv_iter=     113
 tran: time= 3.00000E-10 tot_iter=     306   conv_iter=     115
 sweep: tran tran78   end,  cpu clock=  1.08E+01 memory=    836 kb
 parameter: datariseat      =    1.51E-10
 dcop: begin dcop,  cpu clock=  1.08E+01
 dcop: end dcop,  cpu clock=  1.08E+01 memory=    835 kb  tot_iter=    1120
 output: f:\vlsiexp\exp3_tsetup\t_setup.mt0
 sweep: tran tran79   begin, stop_t=  3.00E-10 #sweeps=3001 cpu clock=  1.08E+01
 tran: time= 3.00000E-11 tot_iter=      49   conv_iter=      20
 tran: time= 6.10341E-11 tot_iter=     105   conv_iter=      41
 tran: time= 9.48495E-11 tot_iter=     119   conv_iter=      46
 tran: time= 1.33137E-10 tot_iter=     125   conv_iter=      49
 tran: time= 1.50780E-10 tot_iter=     129   conv_iter=      51
 tran: time= 1.81232E-10 tot_iter=     190   conv_iter=      73
 tran: time= 2.10545E-10 tot_iter=     254   conv_iter=      96
 tran: time= 2.41389E-10 tot_iter=     290   conv_iter=     108
 tran: time= 2.81569E-10 tot_iter=     302   conv_iter=     113
 tran: time= 3.00000E-10 tot_iter=     306   conv_iter=     115
 sweep: tran tran79   end,  cpu clock=  1.09E+01 memory=    836 kb
 parameter: datariseat      =    1.51E-10
 dcop: begin dcop,  cpu clock=  1.09E+01
 dcop: end dcop,  cpu clock=  1.09E+01 memory=    835 kb  tot_iter=    1134
 output: f:\vlsiexp\exp3_tsetup\t_setup.mt0
 sweep: tran tran80   begin, stop_t=  3.00E-10 #sweeps=3001 cpu clock=  1.09E+01
[...]
 dcop: begin dcop,  cpu clock=  7.23E+01
 dcop: end dcop,  cpu clock=  7.24E+01 memory=    835 kb  tot_iter=    6762
 output: f:\vlsiexp\exp3_tsetup\t_setup.mt0
 sweep: tran tran482  begin, stop_t=  3.00E-10 #sweeps=3001 cpu clock=  7.24E+01
 tran: time= 3.00000E-11 tot_iter=      49   conv_iter=      20
 tran: time= 6.10341E-11 tot_iter=     105   conv_iter=      41
 tran: time= 9.48495E-11 tot_iter=     119   conv_iter=      46
 tran: time= 1.33137E-10 tot_iter=     125   conv_iter=      49
 tran: time= 1.54810E-10 tot_iter=     129   conv_iter=      51
 tran: time= 1.80989E-10 tot_iter=     180   conv_iter=      70
 tran: time= 2.10462E-10 tot_iter=     246   conv_iter=      94
 tran: time= 2.40457E-10 tot_iter=     279   conv_iter=     105
 tran: time= 2.70539E-10 tot_iter=     292   conv_iter=     110
 tran: time= 3.00000E-10 tot_iter=     296   conv_iter=     112
 sweep: tran tran482  end,  cpu clock=  7.26E+01 memory=    836 kb
 parameter: datariseat      =    1.55E-10
 dcop: begin dcop,  cpu clock=  7.26E+01
 dcop: end dcop,  cpu clock=  7.26E+01 memory=    835 kb  tot_iter=    6776
 output: f:\vlsiexp\exp3_tsetup\t_setup.mt0
 sweep: tran tran483  begin, stop_t=  3.00E-10 #sweeps=3001 cpu clock=  7.26E+01
 tran: time= 3.00000E-11 tot_iter=      49   conv_iter=      20
 tran: time= 6.10341E-11 tot_iter=     105   conv_iter=      41
 tran: time= 9.48495E-11 tot_iter=     119   conv_iter=      46
 tran: time= 1.33137E-10 tot_iter=     125   conv_iter=      49
 tran: time= 1.54820E-10 tot_iter=     129   conv_iter=      51
 tran: time= 1.80998E-10 tot_iter=     180   conv_iter=      70
 tran: time= 2.10466E-10 tot_iter=     246   conv_iter=      94
 tran: time= 2.40463E-10 tot_iter=     279   conv_iter=     105
 tran: time= 2.70553E-10 tot_iter=     292   conv_iter=     110
 tran: time= 3.00000E-10 tot_iter=     296   conv_iter=     112
 sweep: tran tran483  end,  cpu clock=  7.27E+01 memory=    836 kb
 parameter: datariseat      =    1.55E-10
 dcop: begin dcop,  cpu clock=  7.28E+01
 dcop: end dcop,  cpu clock=  7.28E+01 memory=    835 kb  tot_iter=    6790
 output: f:\vlsiexp\exp3_tsetup\t_setup.mt0
 sweep: tran tran484  begin, stop_t=  3.00E-10 #sweeps=3001 cpu clock=  7.28E+01
 tran: time= 3.00000E-11 tot_iter=      49   conv_iter=      20
 tran: time= 6.10341E-11 tot_iter=     105   conv_iter=      41
 tran: time= 9.48495E-11 tot_iter=     119   conv_iter=      46
 tran: time= 1.33137E-10 tot_iter=     125   conv_iter=      49
 tran: time= 1.54830E-10 tot_iter=     129   conv_iter=      51
 tran: time= 1.81008E-10 tot_iter=     180   conv_iter=      70
 tran: time= 2.10470E-10 tot_iter=     246   conv_iter=      94
 tran: time= 2.40468E-10 tot_iter=     279   conv_iter=     105
 tran: time= 2.70561E-10 tot_iter=     292   conv_iter=     110
 tran: time= 3.00000E-10 tot_iter=     296   conv_iter=     112
 sweep: tran tran484  end,  cpu clock=  7.29E+01 memory=    836 kb
 parameter: datariseat      =    1.55E-10
 dcop: begin dcop,  cpu clock=  7.29E+01
 dcop: end dcop,  cpu clock=  7.29E+01 memory=    835 kb  tot_iter=    6804
 output: f:\vlsiexp\exp3_tsetup\t_setup.mt0
 sweep: tran tran485  begin, stop_t=  3.00E-10 #sweeps=3001 cpu clock=  7.30E+01
 tran: time= 3.00000E-11 tot_iter=      49   conv_iter=      20
 tran: time= 6.10341E-11 tot_iter=     105   conv_iter=      41
 tran: time= 9.48495E-11 tot_iter=     119   conv_iter=      46
 tran: time= 1.33137E-10 tot_iter=     125   conv_iter=      49
 tran: time= 1.54840E-10 tot_iter=     129   conv_iter=      51
 tran: time= 1.81017E-10 tot_iter=     180   conv_iter=      70
 tran: time= 2.10475E-10 tot_iter=     246   conv_iter=      94
 tran: time= 2.40471E-10 tot_iter=     279   conv_iter=     105
 tran: time= 2.70564E-10 tot_iter=     292   conv_iter=     110
 tran: time= 3.00000E-10 tot_iter=     296   conv_iter=     112
 sweep: tran tran485  end,  cpu clock=  7.31E+01 memory=    836 kb
 parameter: datariseat      =    1.55E-10
 dcop: begin dcop,  cpu clock=  7.31E+01
 dcop: end dcop,  cpu clock=  7.31E+01 memory=    835 kb  tot_iter=    6818
 output: f:\vlsiexp\exp3_tsetup\t_setup.mt0
 sweep: tran tran486  begin, stop_t=  3.00E-10 #sweeps=3001 cpu clock=  7.31E+01
 tran: time= 3.00000E-11 tot_iter=      49   conv_iter=      20
 tran: time= 6.10341E-11 tot_iter=     105   conv_iter=      41
 tran: time= 9.48495E-11 tot_iter=     119   conv_iter=      46
 tran: time= 1.33137E-10 tot_iter=     125   conv_iter=      49
 tran: time= 1.54850E-10 tot_iter=     129   conv_iter=      51
 tran: time= 1.81027E-10 tot_iter=     180   conv_iter=      70
 tran: time= 2.10480E-10 tot_iter=     246   conv_iter=      94
 tran: time= 2.40473E-10 tot_iter=     279   conv_iter=     105
 tran: time= 2.70561E-10 tot_iter=     292   conv_iter=     110
 tran: time= 3.00000E-10 tot_iter=     296   conv_iter=     112
 sweep: tran tran486  end,  cpu clock=  7.32E+01 memory=    836 kb
 parameter: datariseat      =    1.55E-10
 dcop: begin dcop,  cpu clock=  7.32E+01
 dcop: end dcop,  cpu clock=  7.32E+01 memory=    835 kb  tot_iter=    6832
 output: f:\vlsiexp\exp3_tsetup\t_setup.mt0
 sweep: tran tran487  begin, stop_t=  3.00E-10 #sweeps=3001 cpu clock=  7.33E+01
 tran: time= 3.00000E-11 tot_iter=      49   conv_iter=      20
 tran: time= 6.10341E-11 tot_iter=     105   conv_iter=      41
 tran: time= 9.48495E-11 tot_iter=     119   conv_iter=      46
 tran: time= 1.33137E-10 tot_iter=     125   conv_iter=      49
 tran: time= 1.54860E-10 tot_iter=     129   conv_iter=      51
 tran: time= 1.81036E-10 tot_iter=     180   conv_iter=      70
 tran: time= 2.10486E-10 tot_iter=     246   conv_iter=      94
 tran: time= 2.40474E-10 tot_iter=     279   conv_iter=     105
 tran: time= 2.70551E-10 tot_iter=     292   conv_iter=     110
 tran: time= 3.00000E-10 tot_iter=     296   conv_iter=     112
 sweep: tran tran487  end,  cpu clock=  7.34E+01 memory=    836 kb
 parameter: datariseat      =    1.55E-10
 dcop: begin dcop,  cpu clock=  7.34E+01
 dcop: end dcop,  cpu clock=  7.34E+01 memory=    835 kb  tot_iter=    6846
 output: f:\vlsiexp\exp3_tsetup\t_setup.mt0
 sweep: tran tran488  begin, stop_t=  3.00E-10 #sweeps=3001 cpu clock=  7.34E+01
 tran: time= 3.00000E-11 tot_iter=      49   conv_iter=      20
 tran: time= 6.10341E-11 tot_iter=     105   conv_iter=      41
 tran: time= 9.48495E-11 tot_iter=     119   conv_iter=      46
 tran: time= 1.33137E-10 tot_iter=     125   conv_iter=      49
 tran: time= 1.54870E-10 tot_iter=     129   conv_iter=      51
 tran: time= 1.81046E-10 tot_iter=     180   conv_iter=      70
 tran: time= 2.10495E-10 tot_iter=     247   conv_iter=      94
 tran: time= 2.40472E-10 tot_iter=     280   conv_iter=     105
 tran: time= 2.70529E-10 tot_iter=     293   conv_iter=     110
 tran: time= 3.00000E-10 tot_iter=     297   conv_iter=     112
 sweep: tran tran488  end,  cpu clock=  7.36E+01 memory=    836 kb
 parameter: datariseat      =    1.55E-10
 dcop: begin dcop,  cpu clock=  7.36E+01
 dcop: end dcop,  cpu clock=  7.36E+01 memory=    835 kb  tot_iter=    6860
 output: f:\vlsiexp\exp3_tsetup\t_setup.mt0
 sweep: tran tran489  begin, stop_t=  3.00E-10 #sweeps=3001 cpu clock=  7.36E+01
 tran: time= 3.00000E-11 tot_iter=      49   conv_iter=      20
 tran: time= 6.10341E-11 tot_iter=     105   conv_iter=      41
 tran: time= 9.48495E-11 tot_iter=     119   conv_iter=      46
 tran: time= 1.33137E-10 tot_iter=     125   conv_iter=      49
 tran: time= 1.54880E-10 tot_iter=     129   conv_iter=      51
 tran: time= 1.81055E-10 tot_iter=     180   conv_iter=      70
 tran: time= 2.10502E-10 tot_iter=     247   conv_iter=      94
 tran: time= 2.40468E-10 tot_iter=     280   conv_iter=     105
 tran: time= 2.70501E-10 tot_iter=     293   conv_iter=     110
 tran: time= 3.00000E-10 tot_iter=     297   conv_iter=     112
 sweep: tran tran489  end,  cpu clock=  7.37E+01 memory=    836 kb
 parameter: datariseat      =    1.55E-10
 dcop: begin dcop,  cpu clock=  7.37E+01
 dcop: end dcop,  cpu clock=  7.38E+01 memory=    835 kb  tot_iter=    6874
 output: f:\vlsiexp\exp3_tsetup\t_setup.mt0
 sweep: tran tran490  begin, stop_t=  3.00E-10 #sweeps=3001 cpu clock=  7.38E+01
 tran: time= 3.00000E-11 tot_iter=      49   conv_iter=      20
 tran: time= 6.10341E-11 tot_iter=     105   conv_iter=      41
 tran: time= 9.48495E-11 tot_iter=     119   conv_iter=      46
 tran: time= 1.33137E-10 tot_iter=     125   conv_iter=      49
 tran: time= 1.54890E-10 tot_iter=     129   conv_iter=      51
 tran: time= 1.81064E-10 tot_iter=     180   conv_iter=      70
 tran: time= 2.10510E-10 tot_iter=     247   conv_iter=      94
 tran: time= 2.40463E-10 tot_iter=     280   conv_iter=     105
 tran: time= 2.70465E-10 tot_iter=     293   conv_iter=     110
 tran: time= 3.00000E-10 tot_iter=     297   conv_iter=     112
 sweep: tran tran490  end,  cpu clock=  7.39E+01 memory=    836 kb
 parameter: datariseat      =    1.55E-10
 dcop: begin dcop,  cpu clock=  7.39E+01
 dcop: end dcop,  cpu clock=  7.39E+01 memory=    835 kb  tot_iter=    6888
 output: f:\vlsiexp\exp3_tsetup\t_setup.mt0
 sweep: tran tran491  begin, stop_t=  3.00E-10 #sweeps=3001 cpu clock=  7.40E+01
 tran: time= 3.00000E-11 tot_iter=      49   conv_iter=      20
 tran: time= 6.10341E-11 tot_iter=     105   conv_iter=      41
 tran: time= 9.48495E-11 tot_iter=     119   conv_iter=      46
 tran: time= 1.33137E-10 tot_iter=     125   conv_iter=      49
 tran: time= 1.54900E-10 tot_iter=     129   conv_iter=      51
 tran: time= 1.81074E-10 tot_iter=     180   conv_iter=      70
 tran: time= 2.10519E-10 tot_iter=     247   conv_iter=      94
 tran: time= 2.40455E-10 tot_iter=     280   conv_iter=     105
 tran: time= 2.70419E-10 tot_iter=     293   conv_iter=     110
 tran: time= 3.00000E-10 tot_iter=     297   conv_iter=     112
 sweep: tran tran491  end,  cpu clock=  7.41E+01 memory=    836 kb
 parameter: datariseat      =    1.55E-10
 dcop: begin dcop,  cpu clock=  7.41E+01
 dcop: end dcop,  cpu clock=  7.41E+01 memory=    835 kb  tot_iter=    6902
 output: f:\vlsiexp\exp3_tsetup\t_setup.mt0
 sweep: tran tran492  begin, stop_t=  3.00E-10 #sweeps=3001 cpu clock=  7.41E+01
 tran: time= 3.00000E-11 tot_iter=      49   conv_iter=      20
 tran: time= 6.10341E-11 tot_iter=     105   conv_iter=      41
 tran: time= 9.48495E-11 tot_iter=     119   conv_iter=      46
 tran: time= 1.33137E-10 tot_iter=     125   conv_iter=      49
 tran: time= 1.54910E-10 tot_iter=     129   conv_iter=      51
 tran: time= 1.81083E-10 tot_iter=     180   conv_iter=      70
 tran: time= 2.10528E-10 tot_iter=     247   conv_iter=      94
 tran: time= 2.40445E-10 tot_iter=     280   conv_iter=     105
 tran: time= 2.70362E-10 tot_iter=     293   conv_iter=     110
 tran: time= 3.00000E-10 tot_iter=     297   conv_iter=     112
 sweep: tran tran492  end,  cpu clock=  7.43E+01 memory=    836 kb
 parameter: datariseat      =    1.55E-10
 dcop: begin dcop,  cpu clock=  7.43E+01
 dcop: end dcop,  cpu clock=  7.43E+01 memory=    835 kb  tot_iter=    6916
 output: f:\vlsiexp\exp3_tsetup\t_setup.mt0
 sweep: tran tran493  begin, stop_t=  3.00E-10 #sweeps=3001 cpu clock=  7.43E+01
 tran: time= 3.00000E-11 tot_iter=      49   conv_iter=      20
 tran: time= 6.10341E-11 tot_iter=     105   conv_iter=      41
 tran: time= 9.48495E-11 tot_iter=     119   conv_iter=      46
 tran: time= 1.33137E-10 tot_iter=     125   conv_iter=      49
 tran: time= 1.54920E-10 tot_iter=     129   conv_iter=      51
 tran: time= 1.81093E-10 tot_iter=     180   conv_iter=      70
 tran: time= 2.10543E-10 tot_iter=     246   conv_iter=      94
 tran: time= 2.40424E-10 tot_iter=     279   conv_iter=     105
 tran: time= 2.70258E-10 tot_iter=     292   conv_iter=     110
 tran: time= 3.00000E-10 tot_iter=     296   conv_iter=     112
 sweep: tran tran493  end,  cpu clock=  7.44E+01 memory=    836 kb
 parameter: datariseat      =    1.55E-10
 dcop: begin dcop,  cpu clock=  7.44E+01
 dcop: end dcop,  cpu clock=  7.44E+01 memory=    835 kb  tot_iter=    6930
 output: f:\vlsiexp\exp3_tsetup\t_setup.mt0
 sweep: tran tran494  begin, stop_t=  3.00E-10 #sweeps=3001 cpu clock=  7.45E+01
 tran: time= 3.00000E-11 tot_iter=      49   conv_iter=      20
 tran: time= 6.10341E-11 tot_iter=     105   conv_iter=      41
 tran: time= 9.48495E-11 tot_iter=     119   conv_iter=      46
 tran: time= 1.33137E-10 tot_iter=     125   conv_iter=      49
 tran: time= 1.54930E-10 tot_iter=     129   conv_iter=      51
 tran: time= 1.81102E-10 tot_iter=     180   conv_iter=      70
 tran: time= 2.10553E-10 tot_iter=     246   conv_iter=      94
 tran: time= 2.40409E-10 tot_iter=     279   conv_iter=     105
 tran: time= 2.70180E-10 tot_iter=     292   conv_iter=     110
 tran: time= 3.00000E-10 tot_iter=     296   conv_iter=     112
 sweep: tran tran494  end,  cpu clock=  7.46E+01 memory=    836 kb
 parameter: datariseat      =    1.55E-10
 dcop: begin dcop,  cpu clock=  7.46E+01
 dcop: end dcop,  cpu clock=  7.46E+01 memory=    835 kb  tot_iter=    6944
 output: f:\vlsiexp\exp3_tsetup\t_setup.mt0
 sweep: tran tran495  begin, stop_t=  3.00E-10 #sweeps=3001 cpu clock=  7.46E+01
 tran: time= 3.00000E-11 tot_iter=      49   conv_iter=      20
 tran: time= 6.10341E-11 tot_iter=     105   conv_iter=      41
 tran: time= 9.48495E-11 tot_iter=     119   conv_iter=      46
 tran: time= 1.33137E-10 tot_iter=     125   conv_iter=      49
 tran: time= 1.54940E-10 tot_iter=     129   conv_iter=      51
 tran: time= 1.81112E-10 tot_iter=     180   conv_iter=      70
 tran: time= 2.10559E-10 tot_iter=     247   conv_iter=      94
 tran: time= 2.40395E-10 tot_iter=     280   conv_iter=     105
 tran: time= 2.70111E-10 tot_iter=     293   conv_iter=     110
 tran: time= 3.00000E-10 tot_iter=     297   conv_iter=     112
 sweep: tran tran495  end,  cpu clock=  7.47E+01 memory=    836 kb
 parameter: datariseat      =    1.55E-10
 dcop: begin dcop,  cpu clock=  7.48E+01
 dcop: end dcop,  cpu clock=  7.48E+01 memory=    835 kb  tot_iter=    6958
 output: f:\vlsiexp\exp3_tsetup\t_setup.mt0
 sweep: tran tran496  begin, stop_t=  3.00E-10 #sweeps=3001 cpu clock=  7.48E+01
 tran: time= 3.00000E-11 tot_iter=      49   conv_iter=      20
 tran: time= 6.10341E-11 tot_iter=     105   conv_iter=      41
 tran: time= 9.48495E-11 tot_iter=     119   conv_iter=      46
 tran: time= 1.33137E-10 tot_iter=     125   conv_iter=      49
 tran: time= 1.54950E-10 tot_iter=     129   conv_iter=      51
 tran: time= 1.81121E-10 tot_iter=     180   conv_iter=      70
 tran: time= 2.10569E-10 tot_iter=     247   conv_iter=      94
 tran: time= 2.40377E-10 tot_iter=     280   conv_iter=     105
 tran: time= 2.84571E-10 tot_iter=     295   conv_iter=     111
 tran: time= 3.00000E-10 tot_iter=     297   conv_iter=     112
 sweep: tran tran496  end,  cpu clock=  7.49E+01 memory=    836 kb
 parameter: datariseat      =    1.55E-10
 dcop: begin dcop,  cpu clock=  7.49E+01
 dcop: end dcop,  cpu clock=  7.49E+01 memory=    835 kb  tot_iter=    6972
 output: f:\vlsiexp\exp3_tsetup\t_setup.mt0
 sweep: tran tran497  begin, stop_t=  3.00E-10 #sweeps=3001 cpu clock=  7.50E+01
 tran: time= 3.00000E-11 tot_iter=      49   conv_iter=      20
 tran: time= 6.10341E-11 tot_iter=     105   conv_iter=      41
 tran: time= 9.48495E-11 tot_iter=     119   conv_iter=      46
 tran: time= 1.33137E-10 tot_iter=     125   conv_iter=      49
 tran: time= 1.54960E-10 tot_iter=     129   conv_iter=      51
 tran: time= 1.81131E-10 tot_iter=     180   conv_iter=      70
 tran: time= 2.10578E-10 tot_iter=     247   conv_iter=      94
 tran: time= 2.40356E-10 tot_iter=     280   conv_iter=     105
 tran: time= 2.84441E-10 tot_iter=     295   conv_iter=     111
 tran: time= 3.00000E-10 tot_iter=     297   conv_iter=     112
 sweep: tran tran497  end,  cpu clock=  7.51E+01 memory=    836 kb
 parameter: datariseat      =    1.55E-10
 dcop: begin dcop,  cpu clock=  7.51E+01
 dcop: end dcop,  cpu clock=  7.51E+01 memory=    835 kb  tot_iter=    6986
 output: f:\vlsiexp\exp3_tsetup\t_setup.mt0
 sweep: tran tran498  begin, stop_t=  3.00E-10 #sweeps=3001 cpu clock=  7.51E+01
 tran: time= 3.00000E-11 tot_iter=      49   conv_iter=      20
 tran: time= 6.10341E-11 tot_iter=     105   conv_iter=      41
 tran: time= 9.48495E-11 tot_iter=     119   conv_iter=      46
 tran: time= 1.33137E-10 tot_iter=     125   conv_iter=      49
 tran: time= 1.54970E-10 tot_iter=     129   conv_iter=      51
 tran: time= 1.81140E-10 tot_iter=     180   conv_iter=      70
 tran: time= 2.10588E-10 tot_iter=     247   conv_iter=      94
 tran: time= 2.40332E-10 tot_iter=     280   conv_iter=     105
 tran: time= 2.84302E-10 tot_iter=     295   conv_iter=     111
 tran: time= 3.00000E-10 tot_iter=     297   conv_iter=     112
 sweep: tran tran498  end,  cpu clock=  7.53E+01 memory=    836 kb
 parameter: datariseat      =    1.55E-10
 dcop: begin dcop,  cpu clock=  7.53E+01
 dcop: end dcop,  cpu clock=  7.53E+01 memory=    835 kb  tot_iter=    7000
 output: f:\vlsiexp\exp3_tsetup\t_setup.mt0
 sweep: tran tran499  begin, stop_t=  3.00E-10 #sweeps=3001 cpu clock=  7.53E+01
 tran: time= 3.00000E-11 tot_iter=      49   conv_iter=      20
 tran: time= 6.10341E-11 tot_iter=     105   conv_iter=      41
 tran: time= 9.48495E-11 tot_iter=     119   conv_iter=      46
 tran: time= 1.33137E-10 tot_iter=     125   conv_iter=      49
 tran: time= 1.54980E-10 tot_iter=     129   conv_iter=      51
 tran: time= 1.81149E-10 tot_iter=     180   conv_iter=      70
 tran: time= 2.10597E-10 tot_iter=     247   conv_iter=      94
 tran: time= 2.40309E-10 tot_iter=     280   conv_iter=     105
 tran: time= 2.84167E-10 tot_iter=     295   conv_iter=     111
 tran: time= 3.00000E-10 tot_iter=     297   conv_iter=     112
 sweep: tran tran499  end,  cpu clock=  7.54E+01 memory=    836 kb
 parameter: datariseat      =    1.55E-10
 dcop: begin dcop,  cpu clock=  7.55E+01
 dcop: end dcop,  cpu clock=  7.55E+01 memory=    835 kb  tot_iter=    7014
 output: f:\vlsiexp\exp3_tsetup\t_setup.mt0
 sweep: tran tran500  begin, stop_t=  3.00E-10 #sweeps=3001 cpu clock=  7.55E+01
 tran: time= 3.00000E-11 tot_iter=      49   conv_iter=      20
 tran: time= 6.10341E-11 tot_iter=     105   conv_iter=      41
 tran: time= 9.48495E-11 tot_iter=     119   conv_iter=      46
 tran: time= 1.33137E-10 tot_iter=     125   conv_iter=      49
 tran: time= 1.54990E-10 tot_iter=     129   conv_iter=      51
 tran: time= 1.81159E-10 tot_iter=     180   conv_iter=      70
 tran: time= 2.10606E-10 tot_iter=     247   conv_iter=      94
 tran: time= 2.40283E-10 tot_iter=     280   conv_iter=     105
 tran: time= 2.84020E-10 tot_iter=     295   conv_iter=     111
 tran: time= 3.00000E-10 tot_iter=     297   conv_iter=     112
 sweep: tran tran500  end,  cpu clock=  7.56E+01 memory=    836 kb
 parameter: datariseat      =    1.55E-10
 dcop: begin dcop,  cpu clock=  7.56E+01
 dcop: end dcop,  cpu clock=  7.56E+01 memory=    835 kb  tot_iter=    7028
 output: f:\vlsiexp\exp3_tsetup\t_setup.mt0
 sweep: tran tran501  begin, stop_t=  3.00E-10 #sweeps=3001 cpu clock=  7.56E+01
 tran: time= 3.00000E-11 tot_iter=      49   conv_iter=      20
 tran: time= 6.10341E-11 tot_iter=     105   conv_iter=      41
 tran: time= 9.48495E-11 tot_iter=     119   conv_iter=      46
 tran: time= 1.33137E-10 tot_iter=     125   conv_iter=      49
 tran: time= 1.55000E-10 tot_iter=     129   conv_iter=      51
 tran: time= 1.81168E-10 tot_iter=     180   conv_iter=      70
 tran: time= 2.10616E-10 tot_iter=     247   conv_iter=      94
 tran: time= 2.40255E-10 tot_iter=     280   conv_iter=     105
 tran: time= 2.83862E-10 tot_iter=     295   conv_iter=     111
 tran: time= 3.00000E-10 tot_iter=     297   conv_iter=     112
 sweep: tran tran501  end,  cpu clock=  7.58E+01 memory=    836 kb
 sweep: parameter       parameter       1 end
>info:         ***** hspice job concluded
 Init: hspice initialization file: C:\synopsys\Hspice_A-2007.09\hspice.ini
 lic: Release hspice token(s)
