$DATA1 SOURCE='HSPICE' VERSION='A-2007.09'
.TITLE '.title t_setup measure by zhuoxu'
 datariseat       tclktoq          tsetup           temper            
                  alter#            
  1.500e-10        1.899e-11        5.000e-11         25.0000         
                     1.0000         
  1.500e-10        1.899e-11        4.999e-11         25.0000         
                     1.0000         
  1.500e-10        1.899e-11        4.998e-11         25.0000         
                     1.0000         
  1.500e-10        1.899e-11        4.997e-11         25.0000         
                     1.0000         
  1.500e-10        1.899e-11        4.996e-11         25.0000         
                     1.0000         
  1.500e-10        1.899e-11        4.995e-11         25.0000         
                     1.0000         
  1.501e-10        1.899e-11        4.994e-11         25.0000         
                     1.0000         
  1.501e-10        1.899e-11        4.993e-11         25.0000         
                     1.0000         
  1.501e-10        1.899e-11        4.992e-11         25.0000         
                     1.0000         
  1.501e-10        1.899e-11        4.991e-11         25.0000         
                     1.0000         
  1.501e-10        1.899e-11        4.990e-11         25.0000         
                     1.0000         
  1.501e-10        1.899e-11        4.989e-11         25.0000         
                     1.0000         
  1.501e-10        1.898e-11        4.988e-11         25.0000         
                     1.0000         
  1.501e-10        1.898e-11        4.987e-11         25.0000         
                     1.0000         
  1.501e-10        1.898e-11        4.986e-11         25.0000         
                     1.0000         
  1.501e-10        1.898e-11        4.985e-11         25.0000         
                     1.0000         
  1.502e-10        1.898e-11        4.984e-11         25.0000         
                     1.0000         
  1.502e-10        1.898e-11        4.983e-11         25.0000         
                     1.0000         
  1.502e-10        1.898e-11        4.982e-11         25.0000         
                     1.0000         
  1.502e-10        1.898e-11        4.981e-11         25.0000         
                     1.0000         
  1.502e-10        1.898e-11        4.980e-11         25.0000         
                     1.0000         
  1.502e-10        1.898e-11        4.979e-11         25.0000         
                     1.0000         
  1.502e-10        1.898e-11        4.978e-11         25.0000         
                     1.0000         
  1.502e-10        1.898e-11        4.977e-11         25.0000         
                     1.0000         
  1.502e-10        1.897e-11        4.976e-11         25.0000         
                     1.0000         
  1.502e-10        1.897e-11        4.975e-11         25.0000         
                     1.0000         
  1.503e-10        1.897e-11        4.974e-11         25.0000         
                     1.0000         
  1.503e-10        1.898e-11        4.973e-11         25.0000         
                     1.0000         
  1.503e-10        1.898e-11        4.972e-11         25.0000         
                     1.0000         
  1.503e-10        1.898e-11        4.971e-11         25.0000         
                     1.0000         
  1.503e-10        1.898e-11        4.970e-11         25.0000         
                     1.0000         
  1.503e-10        1.898e-11        4.969e-11         25.0000         
                     1.0000         
  1.503e-10        1.898e-11        4.968e-11         25.0000         
                     1.0000         
  1.503e-10        1.899e-11        4.967e-11         25.0000         
                     1.0000         
  1.503e-10        1.899e-11        4.966e-11         25.0000         
                     1.0000         
  1.503e-10        1.899e-11        4.965e-11         25.0000         
                     1.0000         
  1.504e-10        1.899e-11        4.964e-11         25.0000         
                     1.0000         
  1.504e-10        1.899e-11        4.963e-11         25.0000         
                     1.0000         
  1.504e-10        1.899e-11        4.962e-11         25.0000         
                     1.0000         
  1.504e-10        1.900e-11        4.961e-11         25.0000         
                     1.0000         
  1.504e-10        1.900e-11        4.960e-11         25.0000         
                     1.0000         
  1.504e-10        1.900e-11        4.959e-11         25.0000         
                     1.0000         
  1.504e-10        1.900e-11        4.958e-11         25.0000         
                     1.0000         
  1.504e-10        1.900e-11        4.957e-11         25.0000         
                     1.0000         
  1.504e-10        1.900e-11        4.956e-11         25.0000         
                     1.0000         
  1.504e-10        1.900e-11        4.955e-11         25.0000         
                     1.0000         
  1.505e-10        1.900e-11        4.954e-11         25.0000         
                     1.0000         
  1.505e-10        1.900e-11        4.953e-11         25.0000         
                     1.0000         
  1.505e-10        1.900e-11        4.952e-11         25.0000         
                     1.0000         
  1.505e-10        1.900e-11        4.951e-11         25.0000         
                     1.0000         
  1.505e-10        1.900e-11        4.950e-11         25.0000         
                     1.0000         
  1.505e-10        1.900e-11        4.949e-11         25.0000         
                     1.0000         
  1.505e-10        1.900e-11        4.948e-11         25.0000         
                     1.0000         
  1.505e-10        1.900e-11        4.947e-11         25.0000         
                     1.0000         
  1.505e-10        1.900e-11        4.946e-11         25.0000         
                     1.0000         
  1.505e-10        1.900e-11        4.945e-11         25.0000         
                     1.0000         
  1.506e-10        1.900e-11        4.944e-11         25.0000         
                     1.0000         
  1.506e-10        1.900e-11        4.943e-11         25.0000         
                     1.0000         
  1.506e-10        1.900e-11        4.942e-11         25.0000         
                     1.0000         
  1.506e-10        1.900e-11        4.941e-11         25.0000         
                     1.0000         
  1.506e-10        1.900e-11        4.940e-11         25.0000         
                     1.0000         
  1.506e-10        1.900e-11        4.939e-11         25.0000         
                     1.0000         
  1.506e-10        1.900e-11        4.938e-11         25.0000         
                     1.0000         
  1.506e-10        1.900e-11        4.937e-11         25.0000         
                     1.0000         
  1.506e-10        1.900e-11        4.936e-11         25.0000         
                     1.0000         
  1.506e-10        1.900e-11        4.935e-11         25.0000         
                     1.0000         
  1.507e-10        1.900e-11        4.934e-11         25.0000         
                     1.0000         
  1.507e-10        1.900e-11        4.933e-11         25.0000         
                     1.0000         
  1.507e-10        1.900e-11        4.932e-11         25.0000         
                     1.0000         
  1.507e-10        1.901e-11        4.931e-11         25.0000         
                     1.0000         
  1.507e-10        1.901e-11        4.930e-11         25.0000         
                     1.0000         
  1.507e-10        1.901e-11        4.929e-11         25.0000         
                     1.0000         
  1.507e-10        1.901e-11        4.928e-11         25.0000         
                     1.0000         
  1.507e-10        1.901e-11        4.927e-11         25.0000         
                     1.0000         
  1.507e-10        1.901e-11        4.926e-11         25.0000         
                     1.0000         
  1.507e-10        1.901e-11        4.925e-11         25.0000         
                     1.0000         
  1.508e-10        1.901e-11        4.924e-11         25.0000         
                     1.0000         
  1.508e-10        1.901e-11        4.923e-11         25.0000         
                     1.0000         
  1.508e-10        1.901e-11        4.922e-11         25.0000         
                     1.0000         
  1.508e-10        1.901e-11        4.921e-11         25.0000         
                     1.0000         
  1.508e-10        1.901e-11        4.920e-11         25.0000         
                     1.0000         
  1.508e-10        1.902e-11        4.919e-11         25.0000         
                     1.0000         
  1.508e-10        1.902e-11        4.918e-11         25.0000         
                     1.0000         
  1.508e-10        1.902e-11        4.917e-11         25.0000         
                     1.0000         
  1.508e-10        1.902e-11        4.916e-11         25.0000         
                     1.0000         
  1.509e-10        1.902e-11        4.915e-11         25.0000         
                     1.0000         
  1.509e-10        1.902e-11        4.914e-11         25.0000         
                     1.0000         
  1.509e-10        1.902e-11        4.913e-11         25.0000         
                     1.0000         
  1.509e-10        1.902e-11        4.912e-11         25.0000         
                     1.0000         
  1.509e-10        1.902e-11        4.911e-11         25.0000         
                     1.0000         
  1.509e-10        1.902e-11        4.910e-11         25.0000         
                     1.0000         
  1.509e-10        1.903e-11        4.909e-11         25.0000         
                     1.0000         
  1.509e-10        1.903e-11        4.908e-11         25.0000         
                     1.0000         
  1.509e-10        1.903e-11        4.907e-11         25.0000         
                     1.0000         
  1.509e-10        1.903e-11        4.906e-11         25.0000         
                     1.0000         
  1.510e-10        1.903e-11        4.905e-11         25.0000         
                     1.0000         
  1.510e-10        1.903e-11        4.904e-11         25.0000         
                     1.0000         
  1.510e-10        1.903e-11        4.903e-11         25.0000         
                     1.0000         
  1.510e-10        1.903e-11        4.902e-11         25.0000         
                     1.0000         
  1.510e-10        1.903e-11        4.901e-11         25.0000         
                     1.0000         
  1.510e-10        1.903e-11        4.900e-11         25.0000         
                     1.0000         
  1.510e-10        1.903e-11        4.899e-11         25.0000         
                     1.0000         
  1.510e-10        1.904e-11        4.898e-11         25.0000         
                     1.0000         
  1.510e-10        1.904e-11        4.897e-11         25.0000         
                     1.0000         
  1.510e-10        1.904e-11        4.896e-11         25.0000         
                     1.0000         
  1.511e-10        1.904e-11        4.895e-11         25.0000         
                     1.0000         
  1.511e-10        1.904e-11        4.894e-11         25.0000         
                     1.0000         
  1.511e-10        1.904e-11        4.893e-11         25.0000         
                     1.0000         
  1.511e-10        1.904e-11        4.892e-11         25.0000         
                     1.0000         
  1.511e-10        1.904e-11        4.891e-11         25.0000         
                     1.0000         
  1.511e-10        1.904e-11        4.890e-11         25.0000         
                     1.0000         
  1.511e-10        1.905e-11        4.889e-11         25.0000         
                     1.0000         
  1.511e-10        1.905e-11        4.888e-11         25.0000         
                     1.0000         
  1.511e-10        1.905e-11        4.887e-11         25.0000         
                     1.0000         
  1.511e-10        1.905e-11        4.886e-11         25.0000         
                     1.0000         
  1.511e-10        1.905e-11        4.885e-11         25.0000         
                     1.0000         
  1.512e-10        1.905e-11        4.884e-11         25.0000         
                     1.0000         
  1.512e-10        1.906e-11        4.883e-11         25.0000         
                     1.0000         
  1.512e-10        1.906e-11        4.882e-11         25.0000         
                     1.0000         
  1.512e-10        1.906e-11        4.881e-11         25.0000         
                     1.0000         
  1.512e-10        1.906e-11        4.880e-11         25.0000         
                     1.0000         
  1.512e-10        1.906e-11        4.879e-11         25.0000         
                     1.0000         
  1.512e-10        1.906e-11        4.878e-11         25.0000         
                     1.0000         
  1.512e-10        1.906e-11        4.877e-11         25.0000         
                     1.0000         
  1.512e-10        1.906e-11        4.876e-11         25.0000         
                     1.0000         
  1.512e-10        1.907e-11        4.875e-11         25.0000         
                     1.0000         
  1.513e-10        1.907e-11        4.874e-11         25.0000         
                     1.0000         
  1.513e-10        1.907e-11        4.873e-11         25.0000         
                     1.0000         
  1.513e-10        1.907e-11        4.872e-11         25.0000         
                     1.0000         
  1.513e-10        1.907e-11        4.871e-11         25.0000         
                     1.0000         
  1.513e-10        1.907e-11        4.870e-11         25.0000         
                     1.0000         
  1.513e-10        1.907e-11        4.869e-11         25.0000         
                     1.0000         
  1.513e-10        1.907e-11        4.868e-11         25.0000         
                     1.0000         
  1.513e-10        1.907e-11        4.867e-11         25.0000         
                     1.0000         
  1.513e-10        1.907e-11        4.866e-11         25.0000         
                     1.0000         
  1.514e-10        1.908e-11        4.865e-11         25.0000         
                     1.0000         
  1.514e-10        1.908e-11        4.864e-11         25.0000         
                     1.0000         
  1.514e-10        1.910e-11        4.863e-11         25.0000         
                     1.0000         
  1.514e-10        1.910e-11        4.862e-11         25.0000         
                     1.0000         
  1.514e-10        1.907e-11        4.861e-11         25.0000         
                     1.0000         
  1.514e-10        1.908e-11        4.860e-11         25.0000         
                     1.0000         
  1.514e-10        1.908e-11        4.859e-11         25.0000         
                     1.0000         
  1.514e-10        1.907e-11        4.858e-11         25.0000         
                     1.0000         
  1.514e-10        1.907e-11        4.857e-11         25.0000         
                     1.0000         
  1.514e-10        1.908e-11        4.856e-11         25.0000         
                     1.0000         
  1.514e-10        1.908e-11        4.855e-11         25.0000         
                     1.0000         
  1.515e-10        1.908e-11        4.854e-11         25.0000         
                     1.0000         
  1.515e-10        1.908e-11        4.853e-11         25.0000         
                     1.0000         
  1.515e-10        1.908e-11        4.852e-11         25.0000         
                     1.0000         
  1.515e-10        1.908e-11        4.851e-11         25.0000         
                     1.0000         
  1.515e-10        1.908e-11        4.850e-11         25.0000         
                     1.0000         
  1.515e-10        1.908e-11        4.849e-11         25.0000         
                     1.0000         
  1.515e-10        1.908e-11        4.848e-11         25.0000         
                     1.0000         
  1.515e-10        1.909e-11        4.847e-11         25.0000         
                     1.0000         
  1.515e-10        1.909e-11        4.846e-11         25.0000         
                     1.0000         
  1.516e-10        1.909e-11        4.845e-11         25.0000         
                     1.0000         
  1.516e-10        1.909e-11        4.844e-11         25.0000         
                     1.0000         
  1.516e-10        1.909e-11        4.843e-11         25.0000         
                     1.0000         
  1.516e-10        1.909e-11        4.842e-11         25.0000         
                     1.0000         
  1.516e-10        1.909e-11        4.841e-11         25.0000         
                     1.0000         
  1.516e-10        1.909e-11        4.840e-11         25.0000         
                     1.0000         
  1.516e-10        1.909e-11        4.839e-11         25.0000         
                     1.0000         
  1.516e-10        1.909e-11        4.838e-11         25.0000         
                     1.0000         
  1.516e-10        1.910e-11        4.837e-11         25.0000         
                     1.0000         
  1.516e-10        1.910e-11        4.836e-11         25.0000         
                     1.0000         
  1.516e-10        1.910e-11        4.835e-11         25.0000         
                     1.0000         
  1.517e-10        1.910e-11        4.834e-11         25.0000         
                     1.0000         
  1.517e-10        1.910e-11        4.833e-11         25.0000         
                     1.0000         
  1.517e-10        1.910e-11        4.832e-11         25.0000         
                     1.0000         
  1.517e-10        1.910e-11        4.831e-11         25.0000         
                     1.0000         
  1.517e-10        1.910e-11        4.830e-11         25.0000         
                     1.0000         
  1.517e-10        1.910e-11        4.829e-11         25.0000         
                     1.0000         
  1.517e-10        1.910e-11        4.828e-11         25.0000         
                     1.0000         
  1.517e-10        1.911e-11        4.827e-11         25.0000         
                     1.0000         
  1.517e-10        1.911e-11        4.826e-11         25.0000         
                     1.0000         
  1.517e-10        1.911e-11        4.825e-11         25.0000         
                     1.0000         
  1.518e-10        1.911e-11        4.824e-11         25.0000         
                     1.0000         
  1.518e-10        1.911e-11        4.823e-11         25.0000         
                     1.0000         
  1.518e-10        1.911e-11        4.822e-11         25.0000         
                     1.0000         
  1.518e-10        1.911e-11        4.821e-11         25.0000         
                     1.0000         
  1.518e-10        1.911e-11        4.820e-11         25.0000         
                     1.0000         
  1.518e-10        1.911e-11        4.819e-11         25.0000         
                     1.0000         
  1.518e-10        1.911e-11        4.818e-11         25.0000         
                     1.0000         
  1.518e-10        1.912e-11        4.817e-11         25.0000         
                     1.0000         
  1.518e-10        1.912e-11        4.816e-11         25.0000         
                     1.0000         
  1.518e-10        1.912e-11        4.815e-11         25.0000         
                     1.0000         
  1.519e-10        1.912e-11        4.814e-11         25.0000         
                     1.0000         
  1.519e-10        1.912e-11        4.813e-11         25.0000         
                     1.0000         
  1.519e-10        1.912e-11        4.812e-11         25.0000         
                     1.0000         
  1.519e-10        1.912e-11        4.811e-11         25.0000         
                     1.0000         
  1.519e-10        1.912e-11        4.810e-11         25.0000         
                     1.0000         
  1.519e-10        1.912e-11        4.809e-11         25.0000         
                     1.0000         
  1.519e-10        1.913e-11        4.808e-11         25.0000         
                     1.0000         
  1.519e-10        1.913e-11        4.807e-11         25.0000         
                     1.0000         
  1.519e-10        1.913e-11        4.806e-11         25.0000         
                     1.0000         
  1.520e-10        1.913e-11        4.805e-11         25.0000         
                     1.0000         
  1.520e-10        1.913e-11        4.804e-11         25.0000         
                     1.0000         
  1.520e-10        1.913e-11        4.803e-11         25.0000         
                     1.0000         
  1.520e-10        1.913e-11        4.802e-11         25.0000         
                     1.0000         
  1.520e-10        1.913e-11        4.801e-11         25.0000         
                     1.0000         
  1.520e-10        1.913e-11        4.800e-11         25.0000         
                     1.0000         
  1.520e-10        1.914e-11        4.799e-11         25.0000         
                     1.0000         
  1.520e-10        1.914e-11        4.798e-11         25.0000         
                     1.0000         
  1.520e-10        1.914e-11        4.797e-11         25.0000         
                     1.0000         
  1.520e-10        1.914e-11        4.796e-11         25.0000         
                     1.0000         
  1.521e-10        1.914e-11        4.795e-11         25.0000         
                     1.0000         
  1.521e-10        1.914e-11        4.794e-11         25.0000         
                     1.0000         
  1.521e-10        1.914e-11        4.793e-11         25.0000         
                     1.0000         
  1.521e-10        1.914e-11        4.792e-11         25.0000         
                     1.0000         
  1.521e-10        1.914e-11        4.791e-11         25.0000         
                     1.0000         
  1.521e-10        1.914e-11        4.790e-11         25.0000         
                     1.0000         
  1.521e-10        1.914e-11        4.789e-11         25.0000         
                     1.0000         
  1.521e-10        1.914e-11        4.788e-11         25.0000         
                     1.0000         
  1.521e-10        1.915e-11        4.787e-11         25.0000         
                     1.0000         
  1.521e-10        1.916e-11        4.786e-11         25.0000         
                     1.0000         
  1.521e-10        1.916e-11        4.785e-11         25.0000         
                     1.0000         
  1.522e-10        1.917e-11        4.784e-11         25.0000         
                     1.0000         
  1.522e-10        1.917e-11        4.783e-11         25.0000         
                     1.0000         
  1.522e-10        1.917e-11        4.782e-11         25.0000         
                     1.0000         
  1.522e-10        1.917e-11        4.781e-11         25.0000         
                     1.0000         
  1.522e-10        1.917e-11        4.780e-11         25.0000         
                     1.0000         
  1.522e-10        1.917e-11        4.779e-11         25.0000         
                     1.0000         
  1.522e-10        1.917e-11        4.778e-11         25.0000         
                     1.0000         
  1.522e-10        1.917e-11        4.777e-11         25.0000         
                     1.0000         
  1.522e-10        1.918e-11        4.776e-11         25.0000         
                     1.0000         
  1.522e-10        1.918e-11        4.775e-11         25.0000         
                     1.0000         
  1.523e-10        1.918e-11        4.774e-11         25.0000         
                     1.0000         
  1.523e-10        1.918e-11        4.773e-11         25.0000         
                     1.0000         
  1.523e-10        1.918e-11        4.772e-11         25.0000         
                     1.0000         
  1.523e-10        1.918e-11        4.771e-11         25.0000         
                     1.0000         
  1.523e-10        1.918e-11        4.770e-11         25.0000         
                     1.0000         
  1.523e-10        1.918e-11        4.769e-11         25.0000         
                     1.0000         
  1.523e-10        1.918e-11        4.768e-11         25.0000         
                     1.0000         
  1.523e-10        1.918e-11        4.767e-11         25.0000         
                     1.0000         
  1.523e-10        1.919e-11        4.766e-11         25.0000         
                     1.0000         
  1.523e-10        1.919e-11        4.765e-11         25.0000         
                     1.0000         
  1.524e-10        1.919e-11        4.764e-11         25.0000         
                     1.0000         
  1.524e-10        1.919e-11        4.763e-11         25.0000         
                     1.0000         
  1.524e-10        1.919e-11        4.762e-11         25.0000         
                     1.0000         
  1.524e-10        1.919e-11        4.761e-11         25.0000         
                     1.0000         
  1.524e-10        1.919e-11        4.760e-11         25.0000         
                     1.0000         
  1.524e-10        1.919e-11        4.759e-11         25.0000         
                     1.0000         
  1.524e-10        1.919e-11        4.758e-11         25.0000         
                     1.0000         
  1.524e-10        1.919e-11        4.757e-11         25.0000         
                     1.0000         
  1.524e-10        1.919e-11        4.756e-11         25.0000         
                     1.0000         
  1.524e-10        1.919e-11        4.755e-11         25.0000         
                     1.0000         
  1.525e-10        1.919e-11        4.754e-11         25.0000         
                     1.0000         
  1.525e-10        1.919e-11        4.753e-11         25.0000         
                     1.0000         
  1.525e-10        1.919e-11        4.752e-11         25.0000         
                     1.0000         
  1.525e-10        1.920e-11        4.751e-11         25.0000         
                     1.0000         
  1.525e-10        1.920e-11        4.750e-11         25.0000         
                     1.0000         
  1.525e-10        1.920e-11        4.749e-11         25.0000         
                     1.0000         
  1.525e-10        1.920e-11        4.748e-11         25.0000         
                     1.0000         
  1.525e-10        1.920e-11        4.747e-11         25.0000         
                     1.0000         
  1.525e-10        1.920e-11        4.746e-11         25.0000         
                     1.0000         
  1.526e-10        1.920e-11        4.745e-11         25.0000         
                     1.0000         
  1.526e-10        1.920e-11        4.744e-11         25.0000         
                     1.0000         
  1.526e-10        1.920e-11        4.743e-11         25.0000         
                     1.0000         
  1.526e-10        1.920e-11        4.742e-11         25.0000         
                     1.0000         
  1.526e-10        1.920e-11        4.741e-11         25.0000         
                     1.0000         
  1.526e-10        1.920e-11        4.740e-11         25.0000         
                     1.0000         
  1.526e-10        1.920e-11        4.739e-11         25.0000         
                     1.0000         
  1.526e-10        1.920e-11        4.738e-11         25.0000         
                     1.0000         
  1.526e-10        1.920e-11        4.737e-11         25.0000         
                     1.0000         
  1.526e-10        1.920e-11        4.736e-11         25.0000         
                     1.0000         
  1.527e-10        1.920e-11        4.735e-11         25.0000         
                     1.0000         
  1.527e-10        1.920e-11        4.734e-11         25.0000         
                     1.0000         
  1.527e-10        1.920e-11        4.733e-11         25.0000         
                     1.0000         
  1.527e-10        1.920e-11        4.732e-11         25.0000         
                     1.0000         
  1.527e-10        1.920e-11        4.731e-11         25.0000         
                     1.0000         
  1.527e-10        1.920e-11        4.730e-11         25.0000         
                     1.0000         
  1.527e-10        1.920e-11        4.729e-11         25.0000         
                     1.0000         
  1.527e-10        1.920e-11        4.728e-11         25.0000         
                     1.0000         
  1.527e-10        1.921e-11        4.727e-11         25.0000         
                     1.0000         
  1.527e-10        1.921e-11        4.726e-11         25.0000         
                     1.0000         
  1.528e-10        1.921e-11        4.725e-11         25.0000         
                     1.0000         
  1.528e-10        1.921e-11        4.724e-11         25.0000         
                     1.0000         
  1.528e-10        1.921e-11        4.723e-11         25.0000         
                     1.0000         
  1.528e-10        1.922e-11        4.722e-11         25.0000         
                     1.0000         
  1.528e-10        1.922e-11        4.721e-11         25.0000         
                     1.0000         
  1.528e-10        1.922e-11        4.720e-11         25.0000         
                     1.0000         
  1.528e-10        1.922e-11        4.719e-11         25.0000         
                     1.0000         
  1.528e-10        1.922e-11        4.718e-11         25.0000         
                     1.0000         
  1.528e-10        1.922e-11        4.717e-11         25.0000         
                     1.0000         
  1.528e-10        1.922e-11        4.716e-11         25.0000         
                     1.0000         
  1.528e-10        1.922e-11        4.715e-11         25.0000         
                     1.0000         
  1.529e-10        1.922e-11        4.714e-11         25.0000         
                     1.0000         
  1.529e-10        1.922e-11        4.713e-11         25.0000         
                     1.0000         
  1.529e-10        1.922e-11        4.712e-11         25.0000         
                     1.0000         
  1.529e-10        1.923e-11        4.711e-11         25.0000         
                     1.0000         
  1.529e-10        1.923e-11        4.710e-11         25.0000         
                     1.0000         
  1.529e-10        1.923e-11        4.709e-11         25.0000         
                     1.0000         
  1.529e-10        1.923e-11        4.708e-11         25.0000         
                     1.0000         
  1.529e-10        1.923e-11        4.707e-11         25.0000         
                     1.0000         
  1.529e-10        1.923e-11        4.706e-11         25.0000         
                     1.0000         
  1.530e-10        1.923e-11        4.705e-11         25.0000         
                     1.0000         
  1.530e-10        1.923e-11        4.704e-11         25.0000         
                     1.0000         
  1.530e-10        1.923e-11        4.703e-11         25.0000         
                     1.0000         
  1.530e-10        1.923e-11        4.702e-11         25.0000         
                     1.0000         
  1.530e-10        1.924e-11        4.701e-11         25.0000         
                     1.0000         
  1.530e-10        1.924e-11        4.700e-11         25.0000         
                     1.0000         
  1.530e-10        1.924e-11        4.699e-11         25.0000         
                     1.0000         
  1.530e-10        1.924e-11        4.698e-11         25.0000         
                     1.0000         
  1.530e-10        1.924e-11        4.697e-11         25.0000         
                     1.0000         
  1.530e-10        1.924e-11        4.696e-11         25.0000         
                     1.0000         
  1.530e-10        1.924e-11        4.695e-11         25.0000         
                     1.0000         
  1.531e-10        1.924e-11        4.694e-11         25.0000         
                     1.0000         
  1.531e-10        1.925e-11        4.693e-11         25.0000         
                     1.0000         
  1.531e-10        1.925e-11        4.692e-11         25.0000         
                     1.0000         
  1.531e-10        1.925e-11        4.691e-11         25.0000         
                     1.0000         
  1.531e-10        1.925e-11        4.690e-11         25.0000         
                     1.0000         
  1.531e-10        1.925e-11        4.689e-11         25.0000         
                     1.0000         
  1.531e-10        1.925e-11        4.688e-11         25.0000         
                     1.0000         
  1.531e-10        1.925e-11        4.687e-11         25.0000         
                     1.0000         
  1.531e-10        1.925e-11        4.686e-11         25.0000         
                     1.0000         
  1.532e-10        1.926e-11        4.685e-11         25.0000         
                     1.0000         
  1.532e-10        1.926e-11        4.684e-11         25.0000         
                     1.0000         
  1.532e-10        1.926e-11        4.683e-11         25.0000         
                     1.0000         
  1.532e-10        1.926e-11        4.682e-11         25.0000         
                     1.0000         
  1.532e-10        1.926e-11        4.681e-11         25.0000         
                     1.0000         
  1.532e-10        1.926e-11        4.680e-11         25.0000         
                     1.0000         
  1.532e-10        1.927e-11        4.679e-11         25.0000         
                     1.0000         
  1.532e-10        1.927e-11        4.678e-11         25.0000         
                     1.0000         
  1.532e-10        1.927e-11        4.677e-11         25.0000         
                     1.0000         
  1.532e-10        1.927e-11        4.676e-11         25.0000         
                     1.0000         
  1.532e-10        1.927e-11        4.675e-11         25.0000         
                     1.0000         
  1.533e-10        1.927e-11        4.674e-11         25.0000         
                     1.0000         
  1.533e-10        1.928e-11        4.673e-11         25.0000         
                     1.0000         
  1.533e-10        1.928e-11        4.672e-11         25.0000         
                     1.0000         
  1.533e-10        1.928e-11        4.671e-11         25.0000         
                     1.0000         
  1.533e-10        1.928e-11        4.670e-11         25.0000         
                     1.0000         
  1.533e-10        1.928e-11        4.669e-11         25.0000         
                     1.0000         
  1.533e-10        1.928e-11        4.668e-11         25.0000         
                     1.0000         
  1.533e-10        1.928e-11        4.667e-11         25.0000         
                     1.0000         
  1.533e-10        1.929e-11        4.666e-11         25.0000         
                     1.0000         
  1.533e-10        1.929e-11        4.665e-11         25.0000         
                     1.0000         
  1.534e-10        1.929e-11        4.664e-11         25.0000         
                     1.0000         
  1.534e-10        1.929e-11        4.663e-11         25.0000         
                     1.0000         
  1.534e-10        1.929e-11        4.662e-11         25.0000         
                     1.0000         
  1.534e-10        1.929e-11        4.661e-11         25.0000         
                     1.0000         
  1.534e-10        1.930e-11        4.660e-11         25.0000         
                     1.0000         
  1.534e-10        1.930e-11        4.659e-11         25.0000         
                     1.0000         
  1.534e-10        1.930e-11        4.658e-11         25.0000         
                     1.0000         
  1.534e-10        1.930e-11        4.657e-11         25.0000         
                     1.0000         
  1.534e-10        1.930e-11        4.656e-11         25.0000         
                     1.0000         
  1.535e-10        1.930e-11        4.655e-11         25.0000         
                     1.0000         
  1.535e-10        1.931e-11        4.654e-11         25.0000         
                     1.0000         
  1.535e-10        1.931e-11        4.653e-11         25.0000         
                     1.0000         
  1.535e-10        1.931e-11        4.652e-11         25.0000         
                     1.0000         
  1.535e-10        1.931e-11        4.651e-11         25.0000         
                     1.0000         
  1.535e-10        1.931e-11        4.650e-11         25.0000         
                     1.0000         
  1.535e-10        1.931e-11        4.649e-11         25.0000         
                     1.0000         
  1.535e-10        1.932e-11        4.648e-11         25.0000         
                     1.0000         
  1.535e-10        1.932e-11        4.647e-11         25.0000         
                     1.0000         
  1.535e-10        1.932e-11        4.646e-11         25.0000         
                     1.0000         
  1.535e-10        1.932e-11        4.645e-11         25.0000         
                     1.0000         
  1.536e-10        1.932e-11        4.644e-11         25.0000         
                     1.0000         
  1.536e-10        1.933e-11        4.643e-11         25.0000         
                     1.0000         
  1.536e-10        1.933e-11        4.642e-11         25.0000         
                     1.0000         
  1.536e-10        1.933e-11        4.641e-11         25.0000         
                     1.0000         
  1.536e-10        1.933e-11        4.640e-11         25.0000         
                     1.0000         
  1.536e-10        1.933e-11        4.639e-11         25.0000         
                     1.0000         
  1.536e-10        1.934e-11        4.638e-11         25.0000         
                     1.0000         
  1.536e-10        1.934e-11        4.637e-11         25.0000         
                     1.0000         
  1.536e-10        1.934e-11        4.636e-11         25.0000         
                     1.0000         
  1.536e-10        1.934e-11        4.635e-11         25.0000         
                     1.0000         
  1.537e-10        1.934e-11        4.634e-11         25.0000         
                     1.0000         
  1.537e-10        1.935e-11        4.633e-11         25.0000         
                     1.0000         
  1.537e-10        1.935e-11        4.632e-11         25.0000         
                     1.0000         
  1.537e-10        1.935e-11        4.631e-11         25.0000         
                     1.0000         
  1.537e-10        1.935e-11        4.630e-11         25.0000         
                     1.0000         
  1.537e-10        1.936e-11        4.629e-11         25.0000         
                     1.0000         
  1.537e-10        1.936e-11        4.628e-11         25.0000         
                     1.0000         
  1.537e-10        1.936e-11        4.627e-11         25.0000         
                     1.0000         
  1.537e-10        1.936e-11        4.626e-11         25.0000         
                     1.0000         
  1.538e-10        1.936e-11        4.625e-11         25.0000         
                     1.0000         
  1.538e-10        1.936e-11        4.624e-11         25.0000         
                     1.0000         
  1.538e-10        1.937e-11        4.623e-11         25.0000         
                     1.0000         
  1.538e-10        1.937e-11        4.622e-11         25.0000         
                     1.0000         
  1.538e-10        1.937e-11        4.621e-11         25.0000         
                     1.0000         
  1.538e-10        1.937e-11        4.620e-11         25.0000         
                     1.0000         
  1.538e-10        1.937e-11        4.619e-11         25.0000         
                     1.0000         
  1.538e-10        1.938e-11        4.618e-11         25.0000         
                     1.0000         
  1.538e-10        1.938e-11        4.617e-11         25.0000         
                     1.0000         
  1.538e-10        1.938e-11        4.616e-11         25.0000         
                     1.0000         
  1.538e-10        1.938e-11        4.615e-11         25.0000         
                     1.0000         
  1.539e-10        1.938e-11        4.614e-11         25.0000         
                     1.0000         
  1.539e-10        1.939e-11        4.613e-11         25.0000         
                     1.0000         
  1.539e-10        1.939e-11        4.612e-11         25.0000         
                     1.0000         
  1.539e-10        1.942e-11        4.611e-11         25.0000         
                     1.0000         
  1.539e-10        1.943e-11        4.610e-11         25.0000         
                     1.0000         
  1.539e-10        1.942e-11        4.609e-11         25.0000         
                     1.0000         
  1.539e-10        1.939e-11        4.608e-11         25.0000         
                     1.0000         
  1.539e-10        1.940e-11        4.607e-11         25.0000         
                     1.0000         
  1.539e-10        1.940e-11        4.606e-11         25.0000         
                     1.0000         
  1.540e-10        1.943e-11        4.605e-11         25.0000         
                     1.0000         
  1.540e-10        1.944e-11        4.604e-11         25.0000         
                     1.0000         
  1.540e-10        1.939e-11        4.603e-11         25.0000         
                     1.0000         
  1.540e-10        1.940e-11        4.602e-11         25.0000         
                     1.0000         
  1.540e-10        1.940e-11        4.601e-11         25.0000         
                     1.0000         
  1.540e-10        1.940e-11        4.600e-11         25.0000         
                     1.0000         
  1.540e-10        1.940e-11        4.599e-11         25.0000         
                     1.0000         
  1.540e-10        1.940e-11        4.598e-11         25.0000         
                     1.0000         
  1.540e-10        1.941e-11        4.597e-11         25.0000         
                     1.0000         
  1.540e-10        1.941e-11        4.596e-11         25.0000         
                     1.0000         
  1.540e-10        1.941e-11        4.595e-11         25.0000         
                     1.0000         
  1.541e-10        1.941e-11        4.594e-11         25.0000         
                     1.0000         
  1.541e-10        1.941e-11        4.593e-11         25.0000         
                     1.0000         
  1.541e-10        1.942e-11        4.592e-11         25.0000         
                     1.0000         
  1.541e-10        1.942e-11        4.591e-11         25.0000         
                     1.0000         
  1.541e-10        1.942e-11        4.590e-11         25.0000         
                     1.0000         
  1.541e-10        1.942e-11        4.589e-11         25.0000         
                     1.0000         
  1.541e-10        1.942e-11        4.588e-11         25.0000         
                     1.0000         
  1.541e-10        1.943e-11        4.587e-11         25.0000         
                     1.0000         
  1.541e-10        1.943e-11        4.586e-11         25.0000         
                     1.0000         
  1.542e-10        1.943e-11        4.585e-11         25.0000         
                     1.0000         
  1.542e-10        1.943e-11        4.584e-11         25.0000         
                     1.0000         
  1.542e-10        1.943e-11        4.583e-11         25.0000         
                     1.0000         
  1.542e-10        1.944e-11        4.582e-11         25.0000         
                     1.0000         
  1.542e-10        1.944e-11        4.581e-11         25.0000         
                     1.0000         
  1.542e-10        1.944e-11        4.580e-11         25.0000         
                     1.0000         
  1.542e-10        1.944e-11        4.579e-11         25.0000         
                     1.0000         
  1.542e-10        1.944e-11        4.578e-11         25.0000         
                     1.0000         
  1.542e-10        1.945e-11        4.577e-11         25.0000         
                     1.0000         
  1.542e-10        1.945e-11        4.576e-11         25.0000         
                     1.0000         
  1.542e-10        1.945e-11        4.575e-11         25.0000         
                     1.0000         
  1.543e-10        1.945e-11        4.574e-11         25.0000         
                     1.0000         
  1.543e-10        1.945e-11        4.573e-11         25.0000         
                     1.0000         
  1.543e-10        1.946e-11        4.572e-11         25.0000         
                     1.0000         
  1.543e-10        1.946e-11        4.571e-11         25.0000         
                     1.0000         
  1.543e-10        1.946e-11        4.570e-11         25.0000         
                     1.0000         
  1.543e-10        1.946e-11        4.569e-11         25.0000         
                     1.0000         
  1.543e-10        1.947e-11        4.568e-11         25.0000         
                     1.0000         
  1.543e-10        1.947e-11        4.567e-11         25.0000         
                     1.0000         
  1.543e-10        1.947e-11        4.566e-11         25.0000         
                     1.0000         
  1.543e-10        1.947e-11        4.565e-11         25.0000         
                     1.0000         
  1.544e-10        1.947e-11        4.564e-11         25.0000         
                     1.0000         
  1.544e-10        1.948e-11        4.563e-11         25.0000         
                     1.0000         
  1.544e-10        1.948e-11        4.562e-11         25.0000         
                     1.0000         
  1.544e-10        1.948e-11        4.561e-11         25.0000         
                     1.0000         
  1.544e-10        1.948e-11        4.560e-11         25.0000         
                     1.0000         
  1.544e-10        1.948e-11        4.559e-11         25.0000         
                     1.0000         
  1.544e-10        1.949e-11        4.558e-11         25.0000         
                     1.0000         
  1.544e-10        1.949e-11        4.557e-11         25.0000         
                     1.0000         
  1.544e-10        1.949e-11        4.556e-11         25.0000         
                     1.0000         
  1.544e-10        1.949e-11        4.555e-11         25.0000         
                     1.0000         
  1.545e-10        1.950e-11        4.554e-11         25.0000         
                     1.0000         
  1.545e-10        1.950e-11        4.553e-11         25.0000         
                     1.0000         
  1.545e-10        1.950e-11        4.552e-11         25.0000         
                     1.0000         
  1.545e-10        1.950e-11        4.551e-11         25.0000         
                     1.0000         
  1.545e-10        1.950e-11        4.550e-11         25.0000         
                     1.0000         
  1.545e-10        1.951e-11        4.549e-11         25.0000         
                     1.0000         
  1.545e-10        1.951e-11        4.548e-11         25.0000         
                     1.0000         
  1.545e-10        1.951e-11        4.547e-11         25.0000         
                     1.0000         
  1.545e-10        1.951e-11        4.546e-11         25.0000         
                     1.0000         
  1.545e-10        1.952e-11        4.545e-11         25.0000         
                     1.0000         
  1.546e-10        1.952e-11        4.544e-11         25.0000         
                     1.0000         
  1.546e-10        1.952e-11        4.543e-11         25.0000         
                     1.0000         
  1.546e-10        1.952e-11        4.542e-11         25.0000         
                     1.0000         
  1.546e-10        1.952e-11        4.541e-11         25.0000         
                     1.0000         
  1.546e-10        1.957e-11        4.540e-11         25.0000         
                     1.0000         
  1.546e-10        1.957e-11        4.539e-11         25.0000         
                     1.0000         
  1.546e-10        1.957e-11        4.538e-11         25.0000         
                     1.0000         
  1.546e-10        1.957e-11        4.537e-11         25.0000         
                     1.0000         
  1.546e-10        1.958e-11        4.536e-11         25.0000         
                     1.0000         
  1.547e-10        1.958e-11        4.535e-11         25.0000         
                     1.0000         
  1.547e-10        1.958e-11        4.534e-11         25.0000         
                     1.0000         
  1.547e-10        1.958e-11        4.533e-11         25.0000         
                     1.0000         
  1.547e-10        1.958e-11        4.532e-11         25.0000         
                     1.0000         
  1.547e-10        1.959e-11        4.531e-11         25.0000         
                     1.0000         
  1.547e-10        1.959e-11        4.530e-11         25.0000         
                     1.0000         
  1.547e-10        1.959e-11        4.529e-11         25.0000         
                     1.0000         
  1.547e-10        1.958e-11        4.528e-11         25.0000         
                     1.0000         
  1.547e-10        1.958e-11        4.527e-11         25.0000         
                     1.0000         
  1.547e-10        1.959e-11        4.526e-11         25.0000         
                     1.0000         
  1.548e-10        1.959e-11        4.525e-11         25.0000         
                     1.0000         
  1.548e-10        1.959e-11        4.524e-11         25.0000         
                     1.0000         
  1.548e-10        1.957e-11        4.523e-11         25.0000         
                     1.0000         
  1.548e-10        1.957e-11        4.522e-11         25.0000         
                     1.0000         
  1.548e-10        1.957e-11        4.521e-11         25.0000         
                     1.0000         
  1.548e-10        1.957e-11        4.520e-11         25.0000         
                     1.0000         
  1.548e-10        1.958e-11        4.519e-11         25.0000         
                     1.0000         
  1.548e-10        1.958e-11        4.518e-11         25.0000         
                     1.0000         
  1.548e-10        1.958e-11        4.517e-11         25.0000         
                     1.0000         
  1.548e-10        1.959e-11        4.516e-11         25.0000         
                     1.0000         
  1.548e-10        1.959e-11        4.515e-11         25.0000         
                     1.0000         
  1.549e-10        1.959e-11        4.514e-11         25.0000         
                     1.0000         
  1.549e-10        1.959e-11        4.513e-11         25.0000         
                     1.0000         
  1.549e-10        1.960e-11        4.512e-11         25.0000         
                     1.0000         
  1.549e-10        1.960e-11        4.511e-11         25.0000         
                     1.0000         
  1.549e-10        1.960e-11        4.510e-11         25.0000         
                     1.0000         
  1.549e-10        1.961e-11        4.509e-11         25.0000         
                     1.0000         
  1.549e-10        1.961e-11        4.508e-11         25.0000         
                     1.0000         
  1.549e-10        1.961e-11        4.507e-11         25.0000         
                     1.0000         
  1.549e-10        1.962e-11        4.506e-11         25.0000         
                     1.0000         
  1.550e-10        1.962e-11        4.505e-11         25.0000         
                     1.0000         
  1.550e-10        1.962e-11        4.504e-11         25.0000         
                     1.0000         
  1.550e-10        1.963e-11        4.503e-11         25.0000         
                     1.0000         
  1.550e-10        1.963e-11        4.502e-11         25.0000         
                     1.0000         
  1.550e-10        1.963e-11        4.501e-11         25.0000         
                     1.0000         
  1.550e-10        1.963e-11        4.500e-11         25.0000         
                     1.0000         
